SandboxData_C2S7_20210305/C2S7N02020/scenario_003/case.raw
0,100.0,33,0,0,60.0
GRID OPTIMIZATION COMPETITION CHALLENGE 2
INPUT DATA FILES ARE RAW JSON CON
1,'ADAMS 1 1',69.0,1,1,1,1,1.00774765,-19.675975,1.1,0.9,1.1,0.9
2,'ADAMS 2 1',69.0,1,1,1,1,1.01624715,-20.832367,1.1,0.9,1.1,0.9
3,'ADAMS 3 1',69.0,1,1,1,1,0.99748743,-17.95556,1.1,0.9,1.1,0.9
4,'ALEXANDRIA~1',69.0,1,1,1,1,1.02045095,-21.88833,1.1,0.9,1.1,0.9
5,'ALEXANDRIA~2',69.0,1,1,1,1,1.02043355,-21.889728,1.1,0.9,1.1,0.9
6,'ALEXANDRIA~3',69.0,1,1,1,1,1.02309144,-21.002594,1.1,0.9,1.1,0.9
7,'ANTIOCH 1 1',138.0,1,1,1,1,1.01505899,-22.16284,1.1,0.9,1.1,0.9
8,'ANTIOCH 1 2',69.0,1,1,1,1,1.01499557,-23.863257,1.1,0.9,1.1,0.9
9,'ANTIOCH 1 3',138.0,1,1,1,1,1.01527035,-22.09055,1.1,0.9,1.1,0.9
10,'ANTIOCH 2 1',138.0,1,1,1,1,1.0164324,-21.009262,1.1,0.9,1.1,0.9
11,'ANTIOCH 2 2',69.0,1,1,1,1,1.00572419,-23.485015,1.1,0.9,1.1,0.9
12,'ANTIOCH 3 1',69.0,1,1,1,1,1.0059706,-22.931766,1.1,0.9,1.1,0.9
13,'ANTIOCH 4 1',138.0,1,1,1,1,1.0176698,-21.260118,1.1,0.9,1.1,0.9
14,'ANTIOCH 4 2',69.0,1,1,1,1,1.00474262,-23.122405,1.1,0.9,1.1,0.9
15,'ANTIOCH 5 1',69.0,1,1,1,1,1.008798,-24.27872,1.1,0.9,1.1,0.9
16,'ASHLAND CI~1',69.0,1,1,1,1,0.99802786,-19.263457,1.1,0.9,1.1,0.9
17,'ASHLAND CI~2',69.0,1,1,1,1,0.99483263,-19.870765,1.1,0.9,1.1,0.9
18,'ASHLAND CI~3',69.0,1,1,1,1,1.00157714,-18.68348,1.1,0.9,1.1,0.9
19,'ASHLAND CI~4',138.0,1,1,1,1,1.02375913,-15.799179,1.1,0.9,1.1,0.9
20,'ASHLAND CI~5',69.0,1,1,1,1,1.00754166,-18.128659,1.1,0.9,1.1,0.9
21,'ASHLAND CI~6',138.0,1,1,1,1,1.02365172,-15.780594,1.1,0.9,1.1,0.9
22,'BEECHGROVE 1',69.0,1,1,1,1,1.0366807,-23.56628,1.1,0.9,1.1,0.9
23,'BELL BUCKL~1',69.0,1,1,1,1,1.00897646,-25.504488,1.1,0.9,1.1,0.9
24,'BELL BUCKL~2',69.0,1,1,1,1,1.00417542,-25.354917,1.1,0.9,1.1,0.9
25,'BELL BUCKL~3',69.0,1,1,1,1,1.02095532,-23.761822,1.1,0.9,1.1,0.9
26,'BELL BUCKL~4',69.0,1,1,1,1,1.02089679,-23.764552,1.1,0.9,1.1,0.9
27,'BETHPAGE 1 1',69.0,1,1,1,1,1.01285505,-23.387623,1.1,0.9,1.1,0.9
28,'BETHPAGE 1 2',69.0,1,1,1,1,1.0128293,-23.391979,1.1,0.9,1.1,0.9
29,'BETHPAGE 2 1',69.0,1,1,1,1,1.01601553,-22.578394,1.1,0.9,1.1,0.9
30,'BIG ROCK 1',69.0,1,1,1,1,0.99675661,-11.396467,1.1,0.9,1.1,0.9
31,'BON AQUA 1 1',69.0,1,1,1,1,1.0004555,-20.422158,1.1,0.9,1.1,0.9
32,'BON AQUA 2 1',69.0,1,1,1,1,1.01367211,-19.344021,1.1,0.9,1.1,0.9
33,'BON AQUA 3 1',69.0,1,1,1,1,1.03345752,-19.942078,1.1,0.9,1.1,0.9
34,'BRENTWOOD ~1',138.0,1,1,1,1,1.01705289,-18.68916,1.1,0.9,1.1,0.9
35,'BRENTWOOD ~2',69.0,1,1,1,1,1.01284063,-22.085987,1.1,0.9,1.1,0.9
36,'BRENTWOOD ~3',138.0,1,1,1,1,1.01757884,-18.603354,1.1,0.9,1.1,0.9
37,'BRENTWOOD ~4',138.0,1,1,1,1,1.01515245,-19.269031,1.1,0.9,1.1,0.9
38,'BRENTWOOD ~5',69.0,1,1,1,1,1.01215601,-23.025725,1.1,0.9,1.1,0.9
39,'BRENTWOOD ~6',69.0,1,1,1,1,1.01507783,-22.775116,1.1,0.9,1.1,0.9
40,'BRENTWOOD ~7',69.0,1,1,1,1,1.01518238,-22.789826,1.1,0.9,1.1,0.9
41,'BRENTWOOD ~8',69.0,1,1,1,1,1.0130235,-22.458255,1.1,0.9,1.1,0.9
42,'BRENTWOOD ~9',69.0,1,1,1,1,1.00354648,-23.470927,1.1,0.9,1.1,0.9
43,'BRENTWOOD~10',69.0,1,1,1,1,1.00342476,-23.495789,1.1,0.9,1.1,0.9
44,'BURNS 1 1',69.0,1,1,1,1,1.02324593,-20.379539,1.1,0.9,1.1,0.9
45,'BURNS 1 2',69.0,1,1,1,1,1.02326858,-20.377077,1.1,0.9,1.1,0.9
46,'BURNS 2 1',69.0,1,1,1,1,0.99447775,-21.054335,1.1,0.9,1.1,0.9
47,'CARTHAGE 1 1',69.0,1,1,1,1,1.01947534,-21.801817,1.1,0.9,1.1,0.9
48,'CARTHAGE 2 1',69.0,1,1,1,1,1.01913428,-21.960573,1.1,0.9,1.1,0.9
49,'CARTHAGE 2 2',69.0,1,1,1,1,1.01915979,-21.957014,1.1,0.9,1.1,0.9
50,'CARTHAGE 3 1',69.0,1,1,1,1,1.01602519,-22.137338,1.1,0.9,1.1,0.9
51,'CARTHAGE 3 2',69.0,1,1,1,1,1.01597679,-22.143205,1.1,0.9,1.1,0.9
52,'CEDAR HILL~1',69.0,1,1,1,1,1.00056493,-17.991043,1.1,0.9,1.1,0.9
53,'CEDAR HILL~2',69.0,1,1,1,1,0.99806225,-18.02733,1.1,0.9,1.1,0.9
54,'CEDAR HILL~3',69.0,1,1,1,1,0.99804181,-18.029375,1.1,0.9,1.1,0.9
55,'CENTERVILL~1',138.0,1,1,1,1,1.02510333,-15.723406,1.1,0.9,1.1,0.9
56,'CENTERVILL~2',69.0,1,1,1,1,1.00932086,-16.463852,1.1,0.9,1.1,0.9
57,'CENTERVILL~3',138.0,1,1,1,1,1.02503479,-15.728886,1.1,0.9,1.1,0.9
58,'CENTERVILL~4',69.0,1,1,1,1,1.01009703,-15.54157,1.1,0.9,1.1,0.9
59,'CENTERVILL~5',69.0,1,1,1,1,1.00506532,-17.166492,1.1,0.9,1.1,0.9
60,'CHAPEL HIL~1',69.0,1,1,1,1,1.01930976,-24.943952,1.1,0.9,1.1,0.9
61,'CHAPEL HIL~2',69.0,1,1,1,1,1.00147939,-24.23242,1.1,0.9,1.1,0.9
62,'CHAPEL HIL~3',69.0,1,1,1,1,1.03097582,-24.994741,1.1,0.9,1.1,0.9
63,'CHAPMANSBO~1',69.0,1,1,1,1,0.99827492,-18.403315,1.1,0.9,1.1,0.9
64,'CHAPMANSBO~2',69.0,1,1,1,1,1.01026952,-17.737211,1.1,0.9,1.1,0.9
65,'CHARLOTTE ~1',69.0,1,1,1,1,1.00363779,-16.482963,1.1,0.9,1.1,0.9
66,'CHARLOTTE ~2',69.0,1,1,1,1,1.00763845,-16.425563,1.1,0.9,1.1,0.9
67,'CHARLOTTE ~3',69.0,1,1,1,1,1.00179708,-17.181163,1.1,0.9,1.1,0.9
68,'CHRISTIANA~1',69.0,1,1,1,1,1.02408385,-24.974401,1.1,0.9,1.1,0.9
69,'CHRISTIANA~2',69.0,1,1,1,1,1.04347861,-24.487731,1.1,0.9,1.1,0.9
70,'CLARKSVILL~1',138.0,1,1,1,1,1.01333797,-13.83171,1.1,0.9,1.1,0.9
71,'CLARKSVILL~2',69.0,1,1,1,1,1.01166022,-14.871101,1.1,0.9,1.1,0.9
72,'CLARKSVILL~3',138.0,1,1,1,1,1.01317036,-13.860015,1.1,0.9,1.1,0.9
73,'CLARKSVIL~12',138.0,1,1,1,1,1.00984383,-15.219601,1.1,0.9,1.1,0.9
74,'CLARKSVIL~13',69.0,1,1,1,1,0.99957693,-17.693839,1.1,0.9,1.1,0.9
75,'CLARKSVIL~14',138.0,1,1,1,1,1.01003766,-15.198672,1.1,0.9,1.1,0.9
76,'CLARKSVIL~15',345.0,1,1,1,1,1.02959454,-12.0646,1.1,0.9,1.1,0.9
77,'CLARKSVIL~16',138.0,1,1,1,1,1.01995671,-13.974743,1.1,0.9,1.1,0.9
78,'CLARKSVIL~17',69.0,1,1,1,1,1.00680077,-16.006746,1.1,0.9,1.1,0.9
79,'CLARKSVIL~18',69.0,1,1,1,1,1.00541782,-15.675282,1.1,0.9,1.1,0.9
80,'CLARKSVIL~19',69.0,1,1,1,1,0.99886847,-15.631498,1.1,0.9,1.1,0.9
81,'CLARKSVIL~20',69.0,1,1,1,1,0.99888313,-16.423603,1.1,0.9,1.1,0.9
82,'CLARKSVIL~21',138.0,1,1,1,1,1.01424432,-14.635692,1.1,0.9,1.1,0.9
83,'CLARKSVIL~22',69.0,1,1,1,1,0.99888819,-16.47943,1.1,0.9,1.1,0.9
84,'CLARKSVIL~23',138.0,1,1,1,1,1.01439393,-14.625662,1.1,0.9,1.1,0.9
85,'CLARKSVIL~24',138.0,1,1,1,1,1.01905251,-13.622397,1.1,0.9,1.1,0.9
86,'CLARKSVIL~25',69.0,1,1,1,1,1.00899291,-15.198766,1.1,0.9,1.1,0.9
87,'CLARKSVIL~26',138.0,1,1,1,1,1.01891541,-13.634895,1.1,0.9,1.1,0.9
88,'CLARKSVIL~27',138.0,1,1,1,1,1.01218331,-12.28476,1.1,0.9,1.1,0.9
89,'CLARKSVIL~28',69.0,1,1,1,1,0.99121863,-15.378483,1.1,0.9,1.1,0.9
90,'CLARKSVILL~4',138.0,1,1,1,1,1.02025664,-15.101953,1.1,0.9,1.1,0.9
91,'CLARKSVILL~5',69.0,1,1,1,1,1.01606512,-17.01947,1.1,0.9,1.1,0.9
92,'CLARKSVILL~6',138.0,1,1,1,1,1.02037299,-15.082656,1.1,0.9,1.1,0.9
93,'CLARKSVILL~7',69.0,1,1,1,1,1.00386667,-16.145642,1.1,0.9,1.1,0.9
94,'CLARKSVILL~8',69.0,1,1,1,1,1.00392592,-16.138861,1.1,0.9,1.1,0.9
95,'CLARKSVILL~9',69.0,1,1,1,1,1.0003444,-17.928364,1.1,0.9,1.1,0.9
96,'CLARKSVIL~10',138.0,1,1,1,1,1.01747286,-14.265341,1.1,0.9,1.1,0.9
97,'CLARKSVIL~11',69.0,1,1,1,1,1.00680757,-15.690384,1.1,0.9,1.1,0.9
98,'COLLEGE GR~1',69.0,1,1,1,1,1.02334332,-23.546553,1.1,0.9,1.1,0.9
99,'COLLEGE GR~2',69.0,1,1,1,1,1.01999664,-23.62768,1.1,0.9,1.1,0.9
100,'COLLEGE GR~3',69.0,1,1,1,1,1.00918293,-24.773718,1.1,0.9,1.1,0.9
101,'CORNERSVIL~1',69.0,1,1,1,1,1.00853789,-21.228978,1.1,0.9,1.1,0.9
102,'CORNERSVIL~2',69.0,1,1,1,1,1.00851929,-21.231054,1.1,0.9,1.1,0.9
103,'COTTONTOWN~1',69.0,1,1,1,1,1.02644312,-22.736376,1.1,0.9,1.1,0.9
104,'COTTONTOWN~2',69.0,1,1,1,1,1.02872789,-24.248785,1.1,0.9,1.1,0.9
105,'CROSS PLAI~1',69.0,1,1,1,1,1.0226115,-23.760659,1.1,0.9,1.1,0.9
106,'CUMBERLAND~7',69.0,1,1,1,1,1.01881039,-11.720602,1.1,0.9,1.1,0.9
107,'CUMBERLAND~8',69.0,1,1,1,1,1.01042402,-15.839801,1.1,0.9,1.1,0.9
108,'CUMBERLAND~9',69.0,1,1,1,1,1.00718951,-15.410256,1.1,0.9,1.1,0.9
109,'CUNNINGHAM 1',69.0,1,1,1,1,1.00232172,-16.226658,1.1,0.9,1.1,0.9
110,'DICKSON 1 1',69.0,1,1,1,1,1.02327466,-18.603871,1.1,0.9,1.1,0.9
111,'DICKSON 1 2',69.0,1,1,1,1,1.02323484,-18.610249,1.1,0.9,1.1,0.9
112,'DICKSON 2 1',138.0,1,1,1,1,1.02168632,-15.39526,1.1,0.9,1.1,0.9
113,'DICKSON 2 2',69.0,1,1,1,1,1.00711823,-16.940455,1.1,0.9,1.1,0.9
114,'DICKSON 2 3',138.0,1,1,1,1,1.02180147,-15.388257,1.1,0.9,1.1,0.9
115,'DICKSON 3 1',138.0,1,1,1,1,1.02192581,-12.269751,1.1,0.9,1.1,0.9
116,'DICKSON 3 2',69.0,1,1,1,1,1.01376951,-14.399188,1.1,0.9,1.1,0.9
117,'DICKSON 4 1',69.0,1,1,1,1,1.00663638,-16.851948,1.1,0.9,1.1,0.9
118,'DOVER 1 1',138.0,1,1,1,1,1.02776778,-9.883246,1.1,0.9,1.1,0.9
119,'DOVER 1 2',69.0,1,1,1,1,1.01760721,-8.691067,1.1,0.9,1.1,0.9
120,'DOVER 1 3',138.0,1,1,1,1,1.02783406,-9.899377,1.1,0.9,1.1,0.9
121,'DOVER 2 1',69.0,1,1,1,1,1.00995111,-9.242591,1.1,0.9,1.1,0.9
122,'DOVER 3 1',69.0,1,1,1,1,1.01971447,-8.04449,1.1,0.9,1.1,0.9
123,'DOVER 3 2',69.0,1,1,1,1,1.01969206,-8.048352,1.1,0.9,1.1,0.9
124,'DOWELLTOWN 1',69.0,1,1,1,1,1.02428472,-20.495424,1.1,0.9,1.1,0.9
125,'ERIN 1 1',69.0,1,1,1,1,1.01354146,-13.674052,1.1,0.9,1.1,0.9
126,'ERIN 2 1',69.0,1,1,1,1,1.00462544,-15.791795,1.1,0.9,1.1,0.9
127,'ERIN 3 1',69.0,1,1,1,1,1.02062774,-9.790251,1.1,0.9,1.1,0.9
128,'FAIRVIEW 1 1',69.0,1,1,1,1,0.98812342,-22.110396,1.1,0.9,1.1,0.9
129,'FAIRVIEW 2 1',69.0,1,1,1,1,1.00667357,-22.03051,1.1,0.9,1.1,0.9
130,'FAIRVIEW 3 1',138.0,1,1,1,1,1.03207707,-17.023022,1.1,0.9,1.1,0.9
131,'FAIRVIEW 3 2',69.0,1,1,1,1,1.01592278,-20.881618,1.1,0.9,1.1,0.9
132,'FRANKLIN 1 1',69.0,1,1,1,1,0.97757417,-25.084201,1.1,0.9,1.1,0.9
133,'FRANKLIN 2 1',69.0,1,1,1,1,0.98240036,-24.465628,1.1,0.9,1.1,0.9
134,'FRANKLIN 3 1',138.0,1,1,1,1,0.99947441,-20.553132,1.1,0.9,1.1,0.9
135,'FRANKLIN 3 2',69.0,1,1,1,1,0.972471,-25.589449,1.1,0.9,1.1,0.9
136,'FRANKLIN 4 1',138.0,1,1,1,1,1.01572073,-19.115574,1.1,0.9,1.1,0.9
137,'FRANKLIN 4 2',69.0,1,1,1,1,0.98239523,-24.606539,1.1,0.9,1.1,0.9
138,'FRANKLIN 5 1',69.0,1,1,1,1,0.98766083,-23.94252,1.1,0.9,1.1,0.9
139,'GALLATIN 1 1',138.0,1,1,1,1,1.02893782,-19.088326,1.1,0.9,1.1,0.9
140,'GALLATIN 1 2',69.0,1,1,1,1,1.02310276,-20.450881,1.1,0.9,1.1,0.9
141,'GALLATIN 2 1',69.0,1,1,1,1,1.02776253,-20.072143,1.1,0.9,1.1,0.9
142,'GALLATIN 2 2',69.0,1,1,1,1,1.02769184,-20.08043,1.1,0.9,1.1,0.9
143,'GALLATIN 3 1',138.0,1,1,1,1,1.03417814,-19.547165,1.1,0.9,1.1,0.9
144,'GALLATIN 3 2',69.0,1,1,1,1,1.0201292,-21.659539,1.1,0.9,1.1,0.9
145,'FRANKLIN 6 1',69.0,1,1,1,1,1.01284635,-23.323085,1.1,0.9,1.1,0.9
146,'FRANKLIN 7 1',69.0,1,1,1,1,1.01707184,-23.007576,1.1,0.9,1.1,0.9
147,'FRANKLIN 8 1',69.0,1,1,1,1,1.00916028,-22.773755,1.1,0.9,1.1,0.9
148,'FRANKLIN 9 1',69.0,1,1,1,1,1.02062702,-23.607241,1.1,0.9,1.1,0.9
149,'FRANKLIN 1~1',69.0,1,1,1,1,1.01134944,-22.526024,1.1,0.9,1.1,0.9
150,'FRANKLIN 1~2',69.0,1,1,1,1,1.0112977,-22.532186,1.1,0.9,1.1,0.9
151,'FRANKLIN 1~3',69.0,1,1,1,1,1.01088154,-22.245996,1.1,0.9,1.1,0.9
152,'FRANKLIN 1~4',69.0,1,1,1,1,1.00696051,-22.609316,1.1,0.9,1.1,0.9
153,'FRANKLIN 1~5',69.0,1,1,1,1,0.96734148,-26.292079,1.1,0.9,1.1,0.9
154,'GOODLETTSV~1',69.0,1,1,1,1,1.04044259,-24.164588,1.1,0.9,1.1,0.9
155,'GOODLETTSV~2',69.0,1,1,1,1,1.00864244,-21.872774,1.1,0.9,1.1,0.9
156,'GOODLETTSV~3',138.0,1,1,1,1,1.02385652,-19.855179,1.1,0.9,1.1,0.9
157,'GOODLETTSV~4',69.0,1,1,1,1,1.01383114,-21.826262,1.1,0.9,1.1,0.9
158,'GREENBRIER~1',69.0,1,1,1,1,1.0017674,-19.907712,1.1,0.9,1.1,0.9
159,'GREENBRIER~2',69.0,1,1,1,1,1.01121914,-21.802321,1.1,0.9,1.1,0.9
160,'GREENBRIER~3',69.0,1,1,1,1,1.01298594,-22.504073,1.1,0.9,1.1,0.9
161,'HARTSVILLE~1',69.0,1,1,1,1,1.01997042,-22.039617,1.1,0.9,1.1,0.9
162,'HARTSVILLE~2',138.0,1,1,1,1,1.03150535,-18.844417,1.1,0.9,1.1,0.9
163,'HARTSVILLE~3',69.0,1,1,1,1,1.0262531,-21.109567,1.1,0.9,1.1,0.9
164,'HENDERSONV~1',69.0,1,1,1,1,1.01444101,-21.383512,1.1,0.9,1.1,0.9
165,'HENDERSONV~2',138.0,1,1,1,1,1.02535224,-19.706889,1.1,0.9,1.1,0.9
166,'HENDERSONV~3',69.0,1,1,1,1,1.01254821,-21.221386,1.1,0.9,1.1,0.9
167,'HENDERSONV~4',69.0,1,1,1,1,1.02162349,-21.687763,1.1,0.9,1.1,0.9
168,'HENDERSONV~5',138.0,1,1,1,1,1.02627623,-19.335714,1.1,0.9,1.1,0.9
169,'HENDERSONV~6',69.0,1,1,1,1,1.01795232,-21.074859,1.1,0.9,1.1,0.9
170,'HENDERSONV~7',138.0,1,1,1,1,1.02614558,-19.350899,1.1,0.9,1.1,0.9
171,'HENDERSONV~8',69.0,1,1,1,1,1.00686014,-21.622415,1.1,0.9,1.1,0.9
172,'HERMITAGE ~1',69.0,1,1,1,1,1.00264323,-23.652851,1.1,0.9,1.1,0.9
173,'HERMITAGE ~2',138.0,1,1,1,1,1.0198431,-20.514437,1.1,0.9,1.1,0.9
174,'HERMITAGE ~3',69.0,1,1,1,1,1.00880575,-23.669449,1.1,0.9,1.1,0.9
175,'HERMITAGE ~4',69.0,1,1,1,1,1.00846469,-22.132226,1.1,0.9,1.1,0.9
176,'HERMITAGE ~5',69.0,1,1,1,1,1.01481962,-21.88631,1.1,0.9,1.1,0.9
177,'JOELTON 1 1',69.0,1,1,1,1,0.99267232,-23.316119,1.1,0.9,1.1,0.9
178,'JOELTON 1 2',69.0,1,1,1,1,0.9927339,-23.312518,1.1,0.9,1.1,0.9
179,'JOELTON 2 1',69.0,1,1,1,1,1.00042605,-19.40566,1.1,0.9,1.1,0.9
180,'KINGSTON S~1',69.0,1,1,1,1,0.99561042,-20.663706,1.1,0.9,1.1,0.9
181,'KINGSTON S~2',69.0,1,1,1,1,1.00735855,-20.906891,1.1,0.9,1.1,0.9
182,'KINGSTON S~3',69.0,1,1,1,1,1.00733614,-20.911106,1.1,0.9,1.1,0.9
183,'KINGSTON S~4',69.0,1,1,1,1,0.9958002,-21.369862,1.1,0.9,1.1,0.9
184,'LAFAYETTE ~1',138.0,1,1,1,1,1.03404033,-25.197946,1.1,0.9,1.1,0.9
185,'LAFAYETTE ~2',69.0,1,1,1,1,1.02603412,-25.749072,1.1,0.9,1.1,0.9
186,'LAFAYETTE ~3',138.0,1,1,1,1,1.03411567,-25.194765,1.1,0.9,1.1,0.9
187,'LAFAYETTE ~4',69.0,1,1,1,1,1.01887929,-21.744068,1.1,0.9,1.1,0.9
188,'LAFAYETTE ~5',138.0,1,1,1,1,1.03707969,-25.029078,1.1,0.9,1.1,0.9
189,'LAFAYETTE ~6',69.0,1,1,1,1,1.02899122,-24.871733,1.1,0.9,1.1,0.9
190,'LAFAYETTE ~7',138.0,1,1,1,1,1.03703928,-25.034925,1.1,0.9,1.1,0.9
191,'LASCASSAS ~1',69.0,1,1,1,1,1.01993763,-21.745393,1.1,0.9,1.1,0.9
192,'LASCASSAS ~2',69.0,1,1,1,1,1.03552139,-22.462325,1.1,0.9,1.1,0.9
193,'LA VERGNE ~1',69.0,1,1,1,1,1.017223,-22.110509,1.1,0.9,1.1,0.9
194,'LA VERGNE ~2',69.0,1,1,1,1,1.01205671,-23.886036,1.1,0.9,1.1,0.9
195,'LA VERGNE ~3',69.0,1,1,1,1,1.01066566,-23.860293,1.1,0.9,1.1,0.9
196,'LA VERGNE ~4',69.0,1,1,1,1,1.02654481,-24.102761,1.1,0.9,1.1,0.9
197,'LEBANON 1 1',138.0,1,1,1,1,1.03044009,-19.338472,1.1,0.9,1.1,0.9
198,'LEBANON 1 2',69.0,1,1,1,1,1.02826095,-20.617756,1.1,0.9,1.1,0.9
199,'LEBANON 1 3',138.0,1,1,1,1,1.03038263,-19.347942,1.1,0.9,1.1,0.9
200,'LEBANON 2 1',138.0,1,1,1,1,1.02927732,-20.108459,1.1,0.9,1.1,0.9
...
0 / END OF BUS DATA BEGIN LOAD DATA
1,'1',1,1,1,3.806,0.356,0.0,0.0,0.0,0.0,1,1,0
2,'1',1,1,1,3.158,1.05,0.0,0.0,0.0,0.0,1,1,0
3,'1',1,1,1,6.31,1.762,0.0,0.0,0.0,0.0,1,1,0
5,'1',1,1,1,2.634,0.924,0.0,0.0,0.0,0.0,1,1,0
6,'1',1,1,1,3.082,0.318,0.0,0.0,0.0,0.0,1,1,0
8,'1',1,1,1,33.98,5.06,0.0,0.0,0.0,0.0,1,1,0
11,'1',1,1,1,33.98,10.7,0.0,0.0,0.0,0.0,1,1,0
12,'1',1,1,1,50.97,8.715,0.0,0.0,0.0,0.0,1,1,0
14,'1',1,1,1,31.254,7.202,0.0,0.0,0.0,0.0,1,1,0
15,'1',1,1,1,29.992,7.299,0.0,0.0,0.0,0.0,1,1,0
16,'1',1,1,1,11.17,1.27,0.0,0.0,0.0,0.0,1,1,0
17,'1',1,1,1,9.856,4.438,0.0,0.0,0.0,0.0,1,1,0
18,'1',1,1,1,12.671,8.19,0.0,0.0,0.0,0.0,1,1,0
20,'1',1,1,1,6.702,1.926,0.0,0.0,0.0,0.0,1,1,0
22,'1',1,1,1,3.415,1.203,0.0,0.0,0.0,0.0,1,1,0
23,'1',1,1,1,3.739,0.763,0.0,0.0,0.0,0.0,1,1,0
24,'1',1,1,1,4.042,1.353,0.0,0.0,0.0,0.0,1,1,0
26,'1',1,1,1,3.045,0.601,0.0,0.0,0.0,0.0,1,1,0
28,'1',1,1,1,7.11,0.615,0.0,0.0,0.0,0.0,1,1,0
29,'1',1,1,1,5.394,1.28,0.0,0.0,0.0,0.0,1,1,0
30,'1',1,1,1,7.603,3.819,0.0,0.0,0.0,0.0,1,1,0
31,'1',1,1,1,3.309,0.521,0.0,0.0,0.0,0.0,1,1,0
32,'1',1,1,1,15.09,5.535,0.0,0.0,0.0,0.0,1,1,0
33,'1',1,1,1,8.1,0.81,0.0,0.0,0.0,0.0,1,1,0
35,'1',1,1,1,37.474,4.262,0.0,0.0,0.0,0.0,1,1,0
38,'1',1,1,1,22.775,11.638,0.0,0.0,0.0,0.0,1,1,0
40,'1',1,1,1,18.306,0.582,0.0,0.0,0.0,0.0,1,1,0
41,'1',1,1,1,17.732,4.903,0.0,0.0,0.0,0.0,1,1,0
43,'1',1,1,1,38.25,2.94,0.0,0.0,0.0,0.0,1,1,0
44,'1',1,1,1,4.019,1.005,0.0,0.0,0.0,0.0,1,1,0
46,'1',1,1,1,6.109,3.436,0.0,0.0,0.0,0.0,1,1,0
47,'1',1,1,1,4.752,1.602,0.0,0.0,0.0,0.0,1,1,0
48,'1',1,1,1,5.98,1.034,0.0,0.0,0.0,0.0,1,1,0
51,'1',1,1,1,9.339,2.012,0.0,0.0,0.0,0.0,1,1,0
52,'1',1,1,1,3.504,0.261,0.0,0.0,0.0,0.0,1,1,0
54,'1',1,1,1,3.417,1.001,0.0,0.0,0.0,0.0,1,1,0
57,'1',1,1,1,10.127,3.631,0.0,0.0,0.0,0.0,1,1,0
58,'1',1,1,1,8.262,3.08,0.0,0.0,0.0,0.0,1,1,0
59,'1',1,1,1,10.071,2.562,0.0,0.0,0.0,0.0,1,1,0
60,'1',1,1,1,2.88,0.595,0.0,0.0,0.0,0.0,1,1,0
61,'1',1,1,1,7.577,3.588,0.0,0.0,0.0,0.0,1,1,0
62,'1',1,1,1,4.8,1.0,0.0,0.0,0.0,0.0,1,1,0
63,'1',1,1,1,6.53,0.87,0.0,0.0,0.0,0.0,1,1,0
64,'1',1,1,1,2.867,0.387,0.0,0.0,0.0,0.0,1,1,0
65,'1',1,1,1,5.408,1.288,0.0,0.0,0.0,0.0,1,1,0
66,'1',1,1,1,4.368,0.929,0.0,0.0,0.0,0.0,1,1,0
67,'1',1,1,1,3.295,0.337,0.0,0.0,0.0,0.0,1,1,0
68,'1',1,1,1,8.21,3.032,0.0,0.0,0.0,0.0,1,1,0
69,'1',1,1,1,4.181,1.689,0.0,0.0,0.0,0.0,1,1,0
72,'1',1,1,1,44.084,5.418,0.0,0.0,0.0,0.0,1,1,0
74,'1',1,1,1,29.72,11.634,0.0,0.0,0.0,0.0,1,1,0
78,'1',1,1,1,26.844,8.926,0.0,0.0,0.0,0.0,1,1,0
79,'1',1,1,1,13.542,5.83,0.0,0.0,0.0,0.0,1,1,0
80,'1',1,1,1,20.88,5.964,0.0,0.0,0.0,0.0,1,1,0
81,'1',1,1,1,31.914,7.474,0.0,0.0,0.0,0.0,1,1,0
83,'1',1,1,1,28.234,5.46,0.0,0.0,0.0,0.0,1,1,0
87,'1',1,1,1,21.689,7.747,0.0,0.0,0.0,0.0,1,1,0
89,'1',1,1,1,52.2,8.415,0.0,0.0,0.0,0.0,1,1,0
91,'1',1,1,1,12.042,1.545,0.0,0.0,0.0,0.0,1,1,0
93,'1',1,1,1,25.067,11.925,0.0,0.0,0.0,0.0,1,1,0
95,'1',1,1,1,25.96,1.22,0.0,0.0,0.0,0.0,1,1,0
97,'1',1,1,1,26.413,9.93,0.0,0.0,0.0,0.0,1,1,0
98,'1',1,1,1,2.951,0.464,0.0,0.0,0.0,0.0,1,1,0
99,'1',1,1,1,2.912,0.554,0.0,0.0,0.0,0.0,1,1,0
100,'1',1,1,1,4.325,1.591,0.0,0.0,0.0,0.0,1,1,0
102,'1',1,1,1,3.797,0.898,0.0,0.0,0.0,0.0,1,1,0
103,'1',1,1,1,3.774,1.518,0.0,0.0,0.0,0.0,1,1,0
104,'1',1,1,1,10.341,2.236,0.0,0.0,0.0,0.0,1,1,0
105,'1',1,1,1,4.209,2.109,0.0,0.0,0.0,0.0,1,1,0
106,'1',1,1,1,4.641,0.973,0.0,0.0,0.0,0.0,1,1,0
107,'1',1,1,1,4.255,0.513,0.0,0.0,0.0,0.0,1,1,0
108,'1',1,1,1,5.697,0.389,0.0,0.0,0.0,0.0,1,1,0
109,'1',1,1,1,5.088,2.162,0.0,0.0,0.0,0.0,1,1,0
111,'1',1,1,1,11.428,0.833,0.0,0.0,0.0,0.0,1,1,0
113,'1',1,1,1,16.665,5.321,0.0,0.0,0.0,0.0,1,1,0
116,'1',1,1,1,14.383,4.773,0.0,0.0,0.0,0.0,1,1,0
117,'1',1,1,1,11.836,3.281,0.0,0.0,0.0,0.0,1,1,0
119,'1',1,1,1,14.74,5.33,0.0,0.0,0.0,0.0,1,1,0
121,'1',1,1,1,6.14,1.52,0.0,0.0,0.0,0.0,1,1,0
123,'1',1,1,1,6.14,0.8,0.0,0.0,0.0,0.0,1,1,0
124,'1',1,1,1,6.463,2.387,0.0,0.0,0.0,0.0,1,1,0
125,'1',1,1,1,5.358,1.023,0.0,0.0,0.0,0.0,1,1,0
126,'1',1,1,1,3.238,1.021,0.0,0.0,0.0,0.0,1,1,0
127,'1',1,1,1,8.03,1.336,0.0,0.0,0.0,0.0,1,1,0
128,'1',1,1,1,13.97,8.223,0.0,0.0,0.0,0.0,1,1,0
129,'1',1,1,1,11.981,1.145,0.0,0.0,0.0,0.0,1,1,0
131,'1',1,1,1,14.536,5.561,0.0,0.0,0.0,0.0,1,1,0
132,'1',1,1,1,24.179,3.199,0.0,0.0,0.0,0.0,1,1,0
133,'1',1,1,1,22.518,8.703,0.0,0.0,0.0,0.0,1,1,0
135,'1',1,1,1,35.732,8.512,0.0,0.0,0.0,0.0,1,1,0
137,'1',1,1,1,17.278,2.79,0.0,0.0,0.0,0.0,1,1,0
138,'1',1,1,1,24.741,4.697,0.0,0.0,0.0,0.0,1,1,0
140,'1',1,1,1,37.998,2.55,0.0,0.0,0.0,0.0,1,1,0
142,'1',1,1,1,15.479,3.565,0.0,0.0,0.0,0.0,1,1,0
144,'1',1,1,1,16.674,5.604,0.0,0.0,0.0,0.0,1,1,0
145,'1',1,1,1,14.717,4.031,0.0,0.0,0.0,0.0,1,1,0
146,'1',1,1,1,16.928,3.117,0.0,0.0,0.0,0.0,1,1,0
147,'1',1,1,1,22.348,3.795,0.0,0.0,0.0,0.0,1,1,0
148,'1',1,1,1,10.262,3.058,0.0,0.0,0.0,0.0,1,1,0
150,'1',1,1,1,11.22,1.919,0.0,0.0,0.0,0.0,1,1,0
151,'1',1,1,1,11.22,8.552,0.0,0.0,0.0,0.0,1,1,0
152,'1',1,1,1,7.381,0.156,0.0,0.0,0.0,0.0,1,1,0
153,'1',1,1,1,18.42,2.97,0.0,0.0,0.0,0.0,1,1,0
154,'1',1,1,1,17.967,5.657,0.0,0.0,0.0,0.0,1,1,0
155,'1',1,1,1,12.321,3.124,0.0,0.0,0.0,0.0,1,1,0
157,'1',1,1,1,13.914,3.62,0.0,0.0,0.0,0.0,1,1,0
158,'1',1,1,1,13.311,4.933,0.0,0.0,0.0,0.0,1,1,0
159,'1',1,1,1,10.41,1.763,0.0,0.0,0.0,0.0,1,1,0
160,'1',1,1,1,7.527,1.073,0.0,0.0,0.0,0.0,1,1,0
161,'1',1,1,1,8.966,3.194,0.0,0.0,0.0,0.0,1,1,0
163,'1',1,1,1,11.664,3.991,0.0,0.0,0.0,0.0,1,1,0
164,'1',1,1,1,27.757,11.369,0.0,0.0,0.0,0.0,1,1,0
166,'1',1,1,1,16.89,10.081,0.0,0.0,0.0,0.0,1,1,0
167,'1',1,1,1,25.689,2.268,0.0,0.0,0.0,0.0,1,1,0
170,'1',1,1,1,27.732,5.311,0.0,0.0,0.0,0.0,1,1,0
171,'1',1,1,1,46.22,20.462,0.0,0.0,0.0,0.0,1,1,0
172,'1',1,1,1,13.74,2.286,0.0,0.0,0.0,0.0,1,1,0
174,'1',1,1,1,18.35,0.889,0.0,0.0,0.0,0.0,1,1,0
175,'1',1,1,1,15.399,11.25,0.0,0.0,0.0,0.0,1,1,0
176,'1',1,1,1,13.275,3.623,0.0,0.0,0.0,0.0,1,1,0
177,'1',1,1,1,6.4,3.68,0.0,0.0,0.0,0.0,1,1,0
179,'1',1,1,1,5.76,1.161,0.0,0.0,0.0,0.0,1,1,0
180,'1',1,1,1,3.174,0.966,0.0,0.0,0.0,0.0,1,1,0
182,'1',1,1,1,7.464,0.748,0.0,0.0,0.0,0.0,1,1,0
183,'1',1,1,1,6.497,1.655,0.0,0.0,0.0,0.0,1,1,0
185,'1',1,1,1,16.258,1.487,0.0,0.0,0.0,0.0,1,1,0
187,'1',1,1,1,10.49,1.567,0.0,0.0,0.0,0.0,1,1,0
190,'1',1,1,1,10.804,1.614,0.0,0.0,0.0,0.0,1,1,0
191,'1',1,1,1,6.89,1.681,0.0,0.0,0.0,0.0,1,1,0
192,'1',1,1,1,3.083,0.581,0.0,0.0,0.0,0.0,1,1,0
193,'1',1,1,1,20.407,2.84,0.0,0.0,0.0,0.0,1,1,0
194,'1',1,1,1,16.78,13.052,0.0,0.0,0.0,0.0,1,1,0
195,'1',1,1,1,12.288,4.392,0.0,0.0,0.0,0.0,1,1,0
196,'1',1,1,1,18.432,1.53,0.0,0.0,0.0,0.0,1,1,0
199,'1',1,1,1,17.469,2.012,0.0,0.0,0.0,0.0,1,1,0
202,'1',1,1,1,26.765,11.18,0.0,0.0,0.0,0.0,1,1,0
203,'1',1,1,1,23.005,5.196,0.0,0.0,0.0,0.0,1,1,0
205,'1',1,1,1,26.579,5.121,0.0,0.0,0.0,0.0,1,1,0
207,'1',1,1,1,10.0,3.277,0.0,0.0,0.0,0.0,1,1,0
209,'1',1,1,1,8.712,2.631,0.0,0.0,0.0,0.0,1,1,0
210,'1',1,1,1,9.961,4.314,0.0,0.0,0.0,0.0,1,1,0
212,'1',1,1,1,24.42,5.475,0.0,0.0,0.0,0.0,1,1,0
214,'1',1,1,1,10.82,2.505,0.0,0.0,0.0,0.0,1,1,0
217,'1',1,1,1,13.402,2.191,0.0,0.0,0.0,0.0,1,1,0
220,'1',1,1,1,8.379,0.559,0.0,0.0,0.0,0.0,1,1,0
221,'1',1,1,1,6.736,2.203,0.0,0.0,0.0,0.0,1,1,0
222,'1',1,1,1,3.358,2.147,0.0,0.0,0.0,0.0,1,1,0
223,'1',1,1,1,2.94,0.61,0.0,0.0,0.0,0.0,1,1,0
224,'1',1,1,1,7.101,2.157,0.0,0.0,0.0,0.0,1,1,0
225,'1',1,1,1,7.129,3.133,0.0,0.0,0.0,0.0,1,1,0
226,'1',1,1,1,3.488,0.793,0.0,0.0,0.0,0.0,1,1,0
227,'1',1,1,1,5.57,1.5,0.0,0.0,0.0,0.0,1,1,0
231,'1',1,1,1,9.11,2.112,0.0,0.0,0.0,0.0,1,1,0
232,'1',1,1,1,26.105,11.433,0.0,0.0,0.0,0.0,1,1,0
233,'1',1,1,1,19.008,4.644,0.0,0.0,0.0,0.0,1,1,0
236,'1',1,1,1,10.668,0.753,0.0,0.0,0.0,0.0,1,1,0
237,'1',1,1,1,26.654,9.389,0.0,0.0,0.0,0.0,1,1,0
240,'1',1,1,1,53.79,15.285,0.0,0.0,0.0,0.0,1,1,0
241,'1',1,1,1,14.556,2.352,0.0,0.0,0.0,0.0,1,1,0
242,'1',1,1,1,17.914,10.175,0.0,0.0,0.0,0.0,1,1,0
243,'1',1,1,1,29.224,8.794,0.0,0.0,0.0,0.0,1,1,0
244,'1',1,1,1,23.509,6.811,0.0,0.0,0.0,0.0,1,1,0
245,'1',1,1,1,22.326,4.352,0.0,0.0,0.0,0.0,1,1,0
246,'1',1,1,1,33.219,5.019,0.0,0.0,0.0,0.0,1,1,0
247,'1',1,1,1,25.916,6.951,0.0,0.0,0.0,0.0,1,1,0
249,'1',1,1,1,16.685,1.692,0.0,0.0,0.0,0.0,1,1,0
250,'1',1,1,1,13.34,0.962,0.0,0.0,0.0,0.0,1,1,0
251,'1',1,1,1,10.429,2.754,0.0,0.0,0.0,0.0,1,1,0
252,'1',1,1,1,30.67,10.333,0.0,0.0,0.0,0.0,1,1,0
253,'1',1,1,1,11.876,4.363,0.0,0.0,0.0,0.0,1,1,0
255,'1',1,1,1,32.873,8.464,0.0,0.0,0.0,0.0,1,1,0
256,'1',1,1,1,28.066,10.737,0.0,0.0,0.0,0.0,1,1,0
258,'1',1,1,1,28.897,11.533,0.0,0.0,0.0,0.0,1,1,0
260,'1',1,1,1,20.223,4.239,0.0,0.0,0.0,0.0,1,1,0
261,'1',1,1,1,30.557,1.651,0.0,0.0,0.0,0.0,1,1,0
262,'1',1,1,1,26.656,9.637,0.0,0.0,0.0,0.0,1,1,0
263,'1',1,1,1,30.288,6.134,0.0,0.0,0.0,0.0,1,1,0
264,'1',1,1,1,25.53,4.02,0.0,0.0,0.0,0.0,1,1,0
267,'1',1,1,1,32.682,7.118,0.0,0.0,0.0,0.0,1,1,0
270,'1',1,1,1,24.372,5.625,0.0,0.0,0.0,0.0,1,1,0
272,'1',1,1,1,30.964,11.228,0.0,0.0,0.0,0.0,1,1,0
275,'1',1,1,1,19.263,3.272,0.0,0.0,0.0,0.0,1,1,0
276,'1',1,1,1,29.097,2.418,0.0,0.0,0.0,0.0,1,1,0
278,'1',1,1,1,20.713,3.144,0.0,0.0,0.0,0.0,1,1,0
279,'1',1,1,1,5.73,1.095,0.0,0.0,0.0,0.0,1,1,0
280,'1',1,1,1,5.221,0.456,0.0,0.0,0.0,0.0,1,1,0
281,'1',1,1,1,6.0,1.83,0.0,0.0,0.0,0.0,1,1,0
283,'1',1,1,1,15.0,2.985,0.0,0.0,0.0,0.0,1,1,0
284,'1',1,1,1,6.16,1.527,0.0,0.0,0.0,0.0,1,1,0
286,'1',1,1,1,2.91,0.715,0.0,0.0,0.0,0.0,1,1,0
287,'1',1,1,1,2.063,0.577,0.0,0.0,0.0,0.0,1,1,0
288,'1',1,1,1,14.42,3.29,0.0,0.0,0.0,0.0,1,1,0
289,'1',1,1,1,9.993,2.467,0.0,0.0,0.0,0.0,1,1,0
292,'1',1,1,1,25.962,3.762,0.0,0.0,0.0,0.0,1,1,0
293,'1',1,1,1,1.263,0.368,0.0,0.0,0.0,0.0,1,1,0
294,'1',1,1,1,4.03,0.585,0.0,0.0,0.0,0.0,1,1,0
295,'1',1,1,1,5.079,2.404,0.0,0.0,0.0,0.0,1,1,0
296,'1',1,1,1,5.028,0.727,0.0,0.0,0.0,0.0,1,1,0
298,'1',1,1,1,3.732,0.216,0.0,0.0,0.0,0.0,1,1,0
299,'1',1,1,1,4.543,0.701,0.0,0.0,0.0,0.0,1,1,0
...
0 / END OF LOAD DATA BEGIN FIXED SHUNT DATA
0 / END OF FIXED SHUNT DATA BEGIN GENERATOR DATA
1740,'1',84.22,9.406,52.66,-31.596,1.04,0,124.16,0.0,1.0,0.0,0.0,1.0,1,100.0,103.47,26.81,1,1.0,0,1.0,0,1.0,0,1.0,0,1.0
1741,'1',84.22,8.909,52.66,-31.596,1.04,0,124.16,0.0,1.0,0.0,0.0,1.0,1,100.0,103.47,50.92,1,1.0,0,1.0,0,1.0,0,1.0,0,1.0
1742,'1',84.22,8.364,52.66,-31.596,1.04,0,124.16,0.0,1.0,0.0,0.0,1.0,1,100.0,103.47,14.34,1,1.0,0,1.0,0,1.0,0,1.0,0,1.0
1743,'1',84.22,10.875,52.66,-31.596,1.04,0,124.16,0.0,1.0,0.0,0.0,1.0,1,100.0,103.47,18.78,1,1.0,0,1.0,0,1.0,0,1.0,0,1.0
1744,'1',84.22,8.303,52.66,-31.596,1.04,0,124.16,0.0,1.0,0.0,0.0,1.0,1,100.0,103.47,43.26,1,1.0,0,1.0,0,1.0,0,1.0,0,1.0
1745,'1',84.22,10.9,52.66,-31.596,1.04,0,124.16,0.0,1.0,0.0,0.0,1.0,1,100.0,103.47,28.95,1,1.0,0,1.0,0,1.0,0,1.0,0,1.0
1747,'1',25.95,-8.107,8.107,-8.107,1.04,0,39.96,0.0,1.0,0.0,0.0,1.0,1,100.0,27.022,0.0,1,1.0,0,1.0,0,1.0,0,1.0,0,1.0
1748,'1',26.095,8.15,8.15,-8.15,1.04,0,39.96,0.0,1.0,0.0,0.0,1.0,1,100.0,27.167,0.0,1,1.0,0,1.0,0,1.0,0,1.0,0,1.0
1748,'2',26.088,8.148,8.148,-8.148,1.04,0,39.96,0.0,1.0,0.0,0.0,1.0,1,100.0,27.161,0.0,1,1.0,0,1.0,0,1.0,0,1.0,0,1.0
1750,'1',20.744,6.501,6.501,-6.501,1.04,0,34.56,0.0,1.0,0.0,0.0,1.0,1,100.0,21.671,0.0,1,1.0,0,1.0,0,1.0,0,1.0,0,1.0
1751,'1',23.442,8.64,8.64,-8.64,1.04,0,34.56,0.0,1.0,0.0,0.0,1.0,1,100.0,28.8,0.0,1,1.0,0,1.0,0,1.0,0,1.0,0,1.0
1757,'1',256.94,-2.539,605.8,-363.48,1.04,1754,1560.0,0.0,1.0,0.0,0.0,1.0,1,100.0,1300.0,256.94,1,1.0,0,1.0,0,1.0,0,1.0,0,1.0
1758,'1',527.04,37.953,605.8,-363.48,1.04,1754,1560.0,0.0,1.0,0.0,0.0,1.0,1,100.0,1300.0,527.04,1,1.0,0,1.0,0,1.0,0,1.0,0,1.0
1761,'1',11.379,3.566,3.566,-3.566,1.04,0,18.96,0.0,1.0,0.0,0.0,1.0,1,100.0,11.888,0.0,1,1.0,0,1.0,0,1.0,0,1.0,0,1.0
1764,'1',21.147,7.499,7.499,-7.499,1.04,0,31.17,0.0,1.0,0.0,0.0,1.0,1,100.0,24.997,0.0,1,1.0,0,1.0,0,1.0,0,1.0,0,1.0
1764,'2',21.147,7.794,7.794,-7.794,1.04,0,31.17,0.0,1.0,0.0,0.0,1.0,1,100.0,25.98,0.0,1,1.0,0,1.0,0,1.0,0,1.0,0,1.0
1764,'3',16.54,5.213,5.213,-5.213,1.04,0,31.17,0.0,1.0,0.0,0.0,1.0,1,100.0,17.376,0.0,1,1.0,0,1.0,0,1.0,0,1.0,0,1.0
1764,'4',14.537,4.612,4.612,-4.612,1.04,0,31.17,0.0,1.0,0.0,0.0,1.0,1,100.0,15.374,0.0,1,1.0,0,1.0,0,1.0,0,1.0,0,1.0
1768,'1',48.687,9.368,73.293,-73.293,1.04,0,42.36,0.0,1.0,0.0,0.0,1.0,1,100.0,244.311,0.0,1,1.0,0,1.0,0,1.0,0,1.0,0,1.0
1768,'2',210.939,9.368,63.623,-63.623,1.04,0,42.36,0.0,1.0,0.0,0.0,1.0,1,100.0,212.076,0.0,1,1.0,0,1.0,0,1.0,0,1.0,0,1.0
1768,'3',28.411,9.368,54.446,-54.446,1.04,0,42.36,0.0,1.0,0.0,0.0,1.0,1,100.0,181.486,0.0,1,1.0,0,1.0,0,1.0,0,1.0,0,1.0
1770,'1',4.07,2.55,2.55,-1.53,1.04,0,6.0,0.0,1.0,0.0,0.0,1.0,1,100.0,5.0,0.52,1,1.0,0,1.0,0,1.0,0,1.0,0,1.0
1774,'1',2.987,0.546,1.71,-1.026,1.04,0,4.4,0.0,1.0,0.0,0.0,1.0,1,100.0,3.67,0.96,1,1.0,0,1.0,0,1.0,0,1.0,0,1.0
1774,'2',2.987,0.546,1.71,-1.026,1.04,0,4.4,0.0,1.0,0.0,0.0,1.0,1,100.0,3.67,1.63,1,1.0,0,1.0,0,1.0,0,1.0,0,1.0
1775,'1',2.987,0.505,1.71,-1.026,1.04,0,4.4,0.0,1.0,0.0,0.0,1.0,1,100.0,3.67,1.42,1,1.0,0,1.0,0,1.0,0,1.0,0,1.0
1775,'2',2.987,0.505,1.71,-1.026,1.04,0,4.4,0.0,1.0,0.0,0.0,1.0,1,100.0,3.67,0.73,1,1.0,0,1.0,0,1.0,0,1.0,0,1.0
1776,'1',2.987,0.364,1.71,-1.026,1.04,0,4.4,0.0,1.0,0.0,0.0,1.0,1,100.0,3.67,0.5,1,1.0,0,1.0,0,1.0,0,1.0,0,1.0
1776,'2',2.987,0.364,1.71,-1.026,1.04,0,4.4,0.0,1.0,0.0,0.0,1.0,1,100.0,3.67,1.21,1,1.0,0,1.0,0,1.0,0,1.0,0,1.0
1780,'1',2.77,0.868,0.868,-0.868,1.04,0,4.56,0.0,1.0,0.0,0.0,1.0,1,100.0,2.893,0.0,1,1.0,0,1.0,0,1.0,0,1.0,0,1.0
1781,'1',2.937,0.414,0.918,-0.918,1.04,0,4.56,0.0,1.0,0.0,0.0,1.0,1,100.0,3.06,0.0,1,1.0,0,1.0,0,1.0,0,1.0,0,1.0
1781,'2',3.093,0.414,1.14,-1.14,1.04,0,4.56,0.0,1.0,0.0,0.0,1.0,1,100.0,3.8,0.0,1,1.0,0,1.0,0,1.0,0,1.0,0,1.0
1782,'1',2.92,0.913,0.913,-0.913,1.04,0,4.56,0.0,1.0,0.0,0.0,1.0,1,100.0,3.042,0.0,1,1.0,0,1.0,0,1.0,0,1.0,0,1.0
1782,'2',2.357,0.744,0.744,-0.744,1.04,0,4.56,0.0,1.0,0.0,0.0,1.0,1,100.0,2.48,0.0,1,1.0,0,1.0,0,1.0,0,1.0,0,1.0
1786,'1',268.605,1.442,153.78,-92.268,1.03,1784,396.0,0.0,1.0,0.0,0.0,1.0,1,100.0,330.0,49.13,1,1.0,0,1.0,0,1.0,0,1.0,0,1.0
1787,'1',268.605,1.442,153.78,-92.268,1.03,1784,396.0,0.0,1.0,0.0,0.0,1.0,1,100.0,330.0,96.28,1,1.0,0,1.0,0,1.0,0,1.0,0,1.0
1788,'1',260.352,1.442,153.78,-92.268,1.03,1784,396.0,0.0,1.0,0.0,0.0,1.0,1,100.0,330.0,91.44,1,1.0,0,1.0,0,1.0,0,1.0,0,1.0
1790,'1',21.43,6.716,6.716,-6.716,1.04,0,35.64,0.0,1.0,0.0,0.0,1.0,1,100.0,22.387,0.0,1,1.0,0,1.0,0,1.0,0,1.0,0,1.0
1790,'2',24.174,8.257,8.257,-8.257,1.04,0,35.64,0.0,1.0,0.0,0.0,1.0,1,100.0,27.523,0.0,1,1.0,0,1.0,0,1.0,0,1.0,0,1.0
1793,'1',57.596,6.943,56.26,-33.756,1.04,0,132.64,0.0,1.0,0.0,0.0,1.0,1,100.0,110.53,45.79,1,1.0,0,1.0,0,1.0,0,1.0,0,1.0
1794,'1',89.966,6.908,56.26,-33.756,1.04,0,132.64,0.0,1.0,0.0,0.0,1.0,1,100.0,110.53,47.9,1,1.0,0,1.0,0,1.0,0,1.0,0,1.0
1795,'1',51.375,8.574,56.26,-33.756,1.04,0,132.64,0.0,1.0,0.0,0.0,1.0,1,100.0,110.53,14.2,1,1.0,0,1.0,0,1.0,0,1.0,0,1.0
1796,'1',68.616,5.357,56.26,-33.756,1.04,0,132.64,0.0,1.0,0.0,0.0,1.0,1,100.0,110.53,25.13,1,1.0,0,1.0,0,1.0,0,1.0,0,1.0
1797,'1',89.966,6.481,56.26,-33.756,1.04,0,132.64,0.0,1.0,0.0,0.0,1.0,1,100.0,110.53,33.77,1,1.0,0,1.0,0,1.0,0,1.0,0,1.0
1798,'1',89.966,9.922,56.26,-33.756,1.04,0,132.64,0.0,1.0,0.0,0.0,1.0,1,100.0,110.53,27.65,1,1.0,0,1.0,0,1.0,0,1.0,0,1.0
1804,'1',40.323,10.19,12.732,-12.732,1.04,0,78.84,0.0,1.0,0.0,0.0,1.0,1,100.0,42.439,0.0,1,1.0,0,1.0,0,1.0,0,1.0,0,1.0
1805,'1',53.477,5.316,16.778,-16.778,1.04,0,78.84,0.0,1.0,0.0,0.0,1.0,1,100.0,55.927,0.0,1,1.0,0,1.0,0,1.0,0,1.0,0,1.0
1809,'1',93.605,-3.504,58.53,-35.118,1.04,0,138.0,0.0,1.0,0.0,0.0,1.0,1,100.0,115.0,25.26,1,1.0,0,1.0,0,1.0,0,1.0,0,1.0
1810,'1',93.605,-2.439,58.53,-35.118,1.04,0,138.0,0.0,1.0,0.0,0.0,1.0,1,100.0,115.0,54.87,1,1.0,0,1.0,0,1.0,0,1.0,0,1.0
1811,'1',93.605,1.825,58.53,-40.971,1.041,1806,138.0,0.0,1.0,0.0,0.0,1.0,1,100.0,115.0,27.73,1,1.0,0,1.0,0,1.0,0,1.0,0,1.0
1812,'1',93.605,-2.224,58.53,-35.118,1.04,0,138.0,0.0,1.0,0.0,0.0,1.0,1,100.0,115.0,31.11,1,1.0,0,1.0,0,1.0,0,1.0,0,1.0
1818,'1',553.985,50.185,467.32,-280.392,1.04,1814,1523.88,0.0,1.0,0.0,0.0,1.0,1,100.0,1269.9,409.47,1,1.0,0,1.0,0,1.0,0,1.0,0,1.0
1820,'1',42.488,3.799,13.417,-13.417,1.04,0,62.64,0.0,1.0,0.0,0.0,1.0,1,100.0,44.723,0.0,1,1.0,0,1.0,0,1.0,0,1.0,0,1.0
1820,'2',42.488,3.799,15.33,-15.33,1.04,0,62.64,0.0,1.0,0.0,0.0,1.0,1,100.0,51.098,0.0,1,1.0,0,1.0,0,1.0,0,1.0,0,1.0
1820,'3',42.488,3.799,15.042,-15.042,1.04,0,62.64,0.0,1.0,0.0,0.0,1.0,1,100.0,50.14,0.0,1,1.0,0,1.0,0,1.0,0,1.0,0,1.0
1824,'1',14.749,4.686,4.686,-4.686,1.04,0,32.4,0.0,1.0,0.0,0.0,1.0,1,100.0,15.619,0.0,1,1.0,0,1.0,0,1.0,0,1.0,1,1.0
1826,'1',13.715,5.055,5.055,-5.055,1.04,0,20.22,0.0,1.0,0.0,0.0,1.0,1,100.0,16.85,0.0,1,1.0,0,1.0,0,1.0,0,1.0,0,1.0
1826,'2',10.363,3.272,3.272,-3.272,1.04,0,20.22,0.0,1.0,0.0,0.0,1.0,1,100.0,10.906,0.0,1,1.0,0,1.0,0,1.0,0,1.0,0,1.0
1829,'1',28.423,10.356,10.356,-10.356,1.04,0,41.904,0.0,1.0,0.0,0.0,1.0,1,100.0,34.52,0.0,1,1.0,0,1.0,0,1.0,0,1.0,0,1.0
1829,'2',28.423,10.476,10.476,-10.476,1.04,0,41.904,0.0,1.0,0.0,0.0,1.0,1,100.0,34.92,0.0,1,1.0,0,1.0,0,1.0,0,1.0,0,1.0
1830,'1',28.423,-0.786,10.476,-10.476,1.04,0,41.904,0.0,1.0,0.0,0.0,1.0,1,100.0,34.92,0.0,1,1.0,0,1.0,0,1.0,0,1.0,0,1.0
1830,'2',27.054,-0.786,8.454,-8.454,1.04,0,41.904,0.0,1.0,0.0,0.0,1.0,1,100.0,28.178,0.0,1,1.0,0,1.0,0,1.0,0,1.0,0,1.0
1830,'3',21.749,-0.786,6.862,-6.862,1.04,0,41.904,0.0,1.0,0.0,0.0,1.0,1,100.0,22.874,0.0,1,1.0,0,1.0,0,1.0,0,1.0,0,1.0
1832,'1',22.137,4.875,7.005,-7.005,1.04,0,45.24,0.0,1.0,0.0,0.0,1.0,1,100.0,23.352,0.0,1,1.0,0,1.0,0,1.0,0,1.0,0,1.0
1832,'2',23.799,4.875,7.504,-7.504,1.04,0,45.24,0.0,1.0,0.0,0.0,1.0,1,100.0,25.013,0.0,1,1.0,0,1.0,0,1.0,0,1.0,0,1.0
1832,'3',30.686,4.875,10.612,-10.612,1.04,0,45.24,0.0,1.0,0.0,0.0,1.0,1,100.0,35.374,0.0,1,1.0,0,1.0,0,1.0,0,1.0,0,1.0
1832,'4',30.686,4.875,11.31,-11.31,1.04,0,45.24,0.0,1.0,0.0,0.0,1.0,1,100.0,37.7,0.0,1,1.0,0,1.0,0,1.0,0,1.0,0,1.0
1838,'1',165.682,0.397,126.86,-76.116,1.04,0,299.07,0.0,1.0,0.0,0.0,1.0,1,100.0,249.22,100.54,1,1.0,0,1.0,0,1.0,0,1.0,0,1.0
1839,'1',202.852,-10.552,126.86,-76.116,1.04,1835,299.07,0.0,1.0,0.0,0.0,1.0,1,100.0,249.22,26.43,1,1.0,0,1.0,0,1.0,0,1.0,0,1.0
1840,'1',202.852,1.761,126.86,-76.116,1.04,0,299.07,0.0,1.0,0.0,0.0,1.0,1,100.0,249.22,109.59,1,1.0,0,1.0,0,1.0,0,1.0,0,1.0
1841,'1',202.852,-0.733,126.86,-76.116,1.04,0,299.07,0.0,1.0,0.0,0.0,1.0,1,100.0,249.22,106.81,1,1.0,0,1.0,0,1.0,0,1.0,0,1.0
1845,'1',154.057,3.246,96.34,-57.804,1.04,0,227.12,0.0,1.0,0.0,0.0,1.0,1,100.0,189.27,24.72,1,1.0,0,1.0,0,1.0,0,1.0,0,1.0
1846,'1',154.057,2.818,96.34,-57.804,1.04,0,227.12,0.0,1.0,0.0,0.0,1.0,1,100.0,189.27,33.63,1,1.0,0,1.0,0,1.0,0,1.0,0,1.0
1847,'1',154.057,3.616,96.34,-57.804,1.04,0,227.12,0.0,1.0,0.0,0.0,1.0,1,100.0,189.27,40.85,1,1.0,0,1.0,0,1.0,0,1.0,0,1.0
1851,'1',193.452,-4.872,120.97,-72.582,1.04,0,285.2,0.0,1.0,0.0,0.0,1.0,1,100.0,237.67,82.61,1,1.0,0,1.0,0,1.0,0,1.0,0,1.0
1852,'1',193.452,2.419,120.97,-72.582,1.041,1850,285.2,0.0,1.0,0.0,0.0,1.0,1,100.0,237.67,85.08,1,1.0,0,1.0,0,1.0,0,1.0,0,1.0
1853,'1',193.452,2.419,120.97,-72.582,1.041,1850,285.2,0.0,1.0,0.0,0.0,1.0,1,100.0,237.67,27.85,1,1.0,0,1.0,0,1.0,0,1.0,0,1.0
1854,'1',193.452,2.419,120.97,-72.582,1.041,1850,285.2,0.0,1.0,0.0,0.0,1.0,1,100.0,237.67,109.63,1,1.0,0,1.0,0,1.0,0,1.0,0,1.0
1855,'1',193.452,-2.408,120.97,-72.582,1.04,0,285.2,0.0,1.0,0.0,0.0,1.0,1,100.0,237.67,83.36,1,1.0,0,1.0,0,1.0,0,1.0,0,1.0
1856,'1',193.452,2.419,120.97,-72.582,1.041,1850,285.2,0.0,1.0,0.0,0.0,1.0,1,100.0,237.67,55.32,1,1.0,0,1.0,0,1.0,0,1.0,0,1.0
1858,'1',14.651,1.726,9.16,-5.496,1.04,0,21.6,0.0,1.0,0.0,0.0,1.0,1,100.0,18.0,8.14,1,1.0,0,1.0,0,1.0,0,1.0,0,1.0
1864,'1',138.478,12.805,86.6,-60.62,1.04,1861,204.16,0.0,1.0,0.0,0.0,1.0,1,100.0,170.13,75.2,1,1.0,0,1.0,0,1.0,0,1.0,0,1.0
1865,'1',138.478,12.805,86.6,-60.62,1.04,1861,204.16,0.0,1.0,0.0,0.0,1.0,1,100.0,170.13,24.19,1,1.0,0,1.0,0,1.0,0,1.0,0,1.0
1866,'1',138.478,0.985,86.6,-51.96,1.04,0,204.16,0.0,1.0,0.0,0.0,1.0,1,100.0,170.13,78.63,1,1.0,0,1.0,0,1.0,0,1.0,0,1.0
1867,'1',138.478,12.805,86.6,-60.62,1.04,1861,204.16,0.0,1.0,0.0,0.0,1.0,1,100.0,170.13,56.6,1,1.0,0,1.0,0,1.0,0,1.0,0,1.0
1868,'1',138.478,12.805,86.6,-51.96,1.04,1861,204.16,0.0,1.0,0.0,0.0,1.0,1,100.0,170.13,43.7,1,1.0,0,1.0,0,1.0,0,1.0,0,1.0
1869,'1',138.478,-0.587,86.6,-51.96,1.04,0,204.16,0.0,1.0,0.0,0.0,1.0,1,100.0,170.13,65.0,1,1.0,0,1.0,0,1.0,0,1.0,0,1.0
1871,'1',9.36,0.078,3.167,-3.167,1.04,0,13.8,0.0,1.0,0.0,0.0,1.0,1,100.0,10.556,0.0,1,1.0,0,1.0,0,1.0,0,1.0,0,1.0
1871,'2',9.36,0.078,3.176,-3.176,1.04,0,13.8,0.0,1.0,0.0,0.0,1.0,1,100.0,10.587,0.0,1,1.0,0,1.0,0,1.0,0,1.0,0,1.0
1873,'1',13.512,4.596,4.596,-4.596,1.04,0,19.92,0.0,1.0,0.0,0.0,1.0,1,100.0,15.319,0.0,1,1.0,0,1.0,0,1.0,0,1.0,0,1.0
1873,'2',13.512,4.864,4.864,-4.864,1.04,0,19.92,0.0,1.0,0.0,0.0,1.0,1,100.0,16.213,0.0,1,1.0,0,1.0,0,1.0,0,1.0,0,1.0
1874,'1',9.353,2.966,2.966,-2.966,1.04,0,19.92,0.0,1.0,0.0,0.0,1.0,1,100.0,9.888,0.0,1,1.0,0,1.0,0,1.0,0,1.0,0,1.0
1876,'1',23.442,8.261,8.261,-8.261,1.04,0,34.56,0.0,1.0,0.0,0.0,1.0,1,100.0,27.537,0.0,1,1.0,0,1.0,0,1.0,0,1.0,0,1.0
1880,'1',13.855,2.402,4.197,-4.197,1.04,0,5.04,0.0,1.0,0.0,0.0,1.0,1,100.0,13.99,0.0,1,1.0,0,1.0,0,1.0,0,1.0,0,1.0
1885,'1',343.161,21.072,107.088,-107.088,1.038,1882,514.08,0.0,1.0,0.0,0.0,1.0,1,100.0,356.96,0.0,1,1.0,0,1.0,0,1.0,0,1.0,0,1.0
1886,'1',234.235,21.072,74.41,-74.41,1.038,1882,514.08,0.0,1.0,0.0,0.0,1.0,1,100.0,248.034,0.0,1,1.0,0,1.0,0,1.0,0,1.0,0,1.0
1887,'1',312.041,21.072,97.752,-97.752,1.038,1882,514.08,0.0,1.0,0.0,0.0,1.0,1,100.0,325.839,0.0,1,1.0,0,1.0,0,1.0,0,1.0,0,1.0
1888,'1',348.698,21.072,128.52,-128.52,1.038,1882,514.08,0.0,1.0,0.0,0.0,1.0,1,100.0,428.4,0.0,1,1.0,0,1.0,0,1.0,0,1.0,0,1.0
1890,'1',28.777,0.536,9.068,-9.068,1.04,0,54.0,0.0,1.0,0.0,0.0,1.0,1,100.0,30.226,0.0,1,1.0,0,1.0,0,1.0,0,1.0,0,1.0
1891,'1',36.628,7.919,12.488,-12.488,1.04,0,54.0,0.0,1.0,0.0,0.0,1.0,1,100.0,41.626,0.0,1,1.0,0,1.0,0,1.0,0,1.0,0,1.0
1891,'2',36.628,7.919,12.757,-12.757,1.04,0,54.0,0.0,1.0,0.0,0.0,1.0,1,100.0,42.524,0.0,1,1.0,0,1.0,0,1.0,0,1.0,0,1.0
1893,'1',13.814,4.576,4.576,-4.576,1.04,0,11.52,0.0,1.0,0.0,0.0,1.0,1,100.0,15.254,0.0,1,1.0,0,1.0,0,1.0,0,1.0,0,1.0
1898,'1',151.844,25.282,146.23,-87.738,1.04,1895,376.56,0.0,1.0,0.0,0.0,1.0,1,100.0,313.8,106.65,1,1.0,0,1.0,0,1.0,0,1.0,0,1.0
1899,'1',176.764,25.282,146.23,-87.738,1.04,1895,376.56,0.0,1.0,0.0,0.0,1.0,1,100.0,313.8,156.49,1,1.0,0,1.0,0,1.0,0,1.0,0,1.0
1900,'1',162.079,25.282,146.23,-87.738,1.04,1895,376.56,0.0,1.0,0.0,0.0,1.0,1,100.0,313.8,127.12,1,1.0,0,1.0,0,1.0,0,1.0,0,1.0
1901,'1',140.879,25.282,146.23,-87.738,1.04,1895,376.56,0.0,1.0,0.0,0.0,1.0,1,100.0,313.8,84.72,1,1.0,0,1.0,0,1.0,0,1.0,0,1.0
1904,'1',14.651,5.048,5.048,-5.048,1.04,0,21.6,0.0,1.0,0.0,0.0,1.0,1,100.0,16.826,0.0,1,1.0,0,1.0,0,1.0,0,1.0,0,1.0
1904,'2',14.439,4.506,4.506,-4.506,1.04,0,21.6,0.0,1.0,0.0,0.0,1.0,1,100.0,15.019,0.0,1,1.0,0,1.0,0,1.0,0,1.0,0,1.0
1904,'3',14.651,5.203,5.203,-5.203,1.04,0,21.6,0.0,1.0,0.0,0.0,1.0,1,100.0,17.344,0.0,1,1.0,0,1.0,0,1.0,0,1.0,0,1.0
1906,'1',9.767,3.6,3.6,-3.6,1.04,0,14.4,0.0,1.0,0.0,0.0,1.0,1,100.0,12.0,0.0,1,1.0,0,1.0,0,1.0,0,1.0,0,1.0
1907,'1',9.767,3.133,3.133,-3.133,1.04,0,14.4,0.0,1.0,0.0,0.0,1.0,1,100.0,10.443,0.0,1,1.0,0,1.0,0,1.0,0,1.0,0,1.0
1907,'2',7.877,2.479,2.479,-2.479,1.04,0,14.4,0.0,1.0,0.0,0.0,1.0,1,100.0,8.263,0.0,1,1.0,0,1.0,0,1.0,0,1.0,0,1.0
1910,'1',25.912,8.121,8.121,-8.121,1.04,0,43.2,0.0,1.0,0.0,0.0,1.0,1,100.0,27.071,0.0,1,1.0,0,1.0,0,1.0,0,1.0,0,1.0
1910,'2',29.302,10.533,10.533,-10.533,1.04,0,43.2,0.0,1.0,0.0,0.0,1.0,1,100.0,35.109,0.0,1,1.0,0,1.0,0,1.0,0,1.0,0,1.0
1913,'1',3.663,1.814,2.29,-1.374,1.04,0,5.4,0.0,1.0,0.0,0.0,1.0,1,100.0,4.5,1.94,1,1.0,0,1.0,0,1.0,0,1.0,0,1.0
1916,'1',32.558,2.224,12.0,-12.0,1.04,0,48.0,0.0,1.0,0.0,0.0,1.0,1,100.0,40.0,0.0,1,1.0,0,1.0,0,1.0,0,1.0,0,1.0
1916,'2',32.558,2.224,12.0,-12.0,1.04,0,48.0,0.0,1.0,0.0,0.0,1.0,1,100.0,40.0,0.0,1,1.0,0,1.0,0,1.0,0,1.0,0,1.0
1916,'3',20.424,2.224,6.514,-6.514,1.04,0,48.0,0.0,1.0,0.0,0.0,1.0,1,100.0,21.712,0.0,1,1.0,0,1.0,0,1.0,0,1.0,0,1.0
1916,'4',32.558,2.224,10.788,-10.788,1.04,0,48.0,0.0,1.0,0.0,0.0,1.0,1,100.0,35.96,0.0,1,1.0,0,1.0,0,1.0,0,1.0,0,1.0
1916,'5',32.558,2.224,10.748,-10.748,1.04,0,48.0,0.0,1.0,0.0,0.0,1.0,1,100.0,35.826,0.0,1,1.0,0,1.0,0,1.0,0,1.0,0,1.0
1916,'6',32.558,2.224,12.0,-12.0,1.04,0,48.0,0.0,1.0,0.0,0.0,1.0,1,100.0,40.0,0.0,1,1.0,0,1.0,0,1.0,0,1.0,0,1.0
1922,'1',320.52,-135.464,442.7,-265.62,1.031,1919,1140.0,0.0,1.0,0.0,0.0,1.0,1,100.0,950.0,320.52,1,1.0,0,1.0,0,1.0,0,1.0,0,1.0
1927,'1',26.373,3.022,8.282,-8.282,1.04,0,45.99,0.0,1.0,0.0,0.0,1.0,1,100.0,27.608,0.0,1,1.0,0,1.0,0,1.0,0,1.0,0,1.0
1927,'2',31.189,3.022,11.496,-11.496,1.04,0,45.99,0.0,1.0,0.0,0.0,1.0,1,100.0,38.32,0.0,1,1.0,0,1.0,0,1.0,0,1.0,0,1.0
1928,'1',31.189,5.11,10.317,-10.317,1.04,0,45.99,0.0,1.0,0.0,0.0,1.0,1,100.0,34.39,0.0,1,1.0,0,1.0,0,1.0,0,1.0,0,1.0
1929,'1',31.189,4.425,11.496,-11.496,1.04,0,45.99,0.0,1.0,0.0,0.0,1.0,1,100.0,38.32,0.0,1,1.0,0,1.0,0,1.0,0,1.0,0,1.0
1931,'1',1.68,0.53,0.53,-0.53,1.04,0,3.18,0.0,1.0,0.0,0.0,1.0,1,100.0,1.766,0.0,1,1.0,0,1.0,0,1.0,0,1.0,0,1.0
1931,'2',2.157,0.795,0.795,-0.795,1.04,0,3.18,0.0,1.0,0.0,0.0,1.0,1,100.0,2.65,0.0,1,1.0,0,1.0,0,1.0,0,1.0,0,1.0
1932,'1',2.157,0.751,0.751,-0.751,1.04,0,3.18,0.0,1.0,0.0,0.0,1.0,1,100.0,2.504,0.0,1,1.0,0,1.0,0,1.0,0,1.0,0,1.0
1932,'2',2.157,0.795,0.795,-0.795,1.04,0,3.18,0.0,1.0,0.0,0.0,1.0,1,100.0,2.65,0.0,1,1.0,0,1.0,0,1.0,0,1.0,0,1.0
1937,'1',993.431,80.605,449.14,-269.484,1.036,1934,1464.6,0.0,1.0,0.0,0.0,1.0,1,100.0,1220.5,473.43,1,1.0,0,1.0,0,1.0,0,1.0,0,1.0
1938,'1',993.431,80.605,449.14,-269.484,1.036,1934,1464.6,0.0,1.0,0.0,0.0,1.0,1,100.0,1220.5,379.66,1,1.0,0,1.0,0,1.0,0,1.0,0,1.0
1940,'1',18.599,6.855,6.855,-6.855,1.04,0,27.42,0.0,1.0,0.0,0.0,1.0,1,100.0,22.85,0.0,1,1.0,0,1.0,0,1.0,0,1.0,0,1.0
1941,'1',18.599,6.012,6.012,-6.012,1.04,0,27.42,0.0,1.0,0.0,0.0,1.0,1,100.0,20.041,0.0,1,1.0,0,1.0,0,1.0,0,1.0,0,1.0
1943,'1',1.465,0.84,0.84,-0.504,1.04,0,2.16,0.0,1.0,0.0,0.0,1.0,1,100.0,1.8,0.26,1,1.0,0,1.0,0,1.0,0,1.0,0,1.0
1943,'2',1.465,0.84,0.84,-0.504,1.04,0,2.16,0.0,1.0,0.0,0.0,1.0,1,100.0,1.8,0.87,1,1.0,0,1.0,0,1.0,0,1.0,0,1.0
1946,'1',0.456,0.143,0.143,-0.143,1.04,0,0.72,0.0,1.0,0.0,0.0,1.0,1,100.0,0.476,0.0,1,1.0,0,1.0,0,1.0,0,1.0,1,1.0
1946,'2',0.281,0.09,0.09,-0.09,1.04,0,0.72,0.0,1.0,0.0,0.0,1.0,1,100.0,0.3,0.0,1,1.0,0,1.0,0,1.0,0,1.0,1,1.0
1947,'1',0.428,0.13,0.134,-0.134,1.04,0,0.72,0.0,1.0,0.0,0.0,1.0,1,100.0,0.447,0.0,1,1.0,0,1.0,0,1.0,0,1.0,1,1.0
1952,'1',46.373,11.934,132.03,-79.218,1.037,1949,340.0,0.0,1.0,0.0,0.0,1.0,1,100.0,283.33,37.67,1,1.0,0,1.0,0,1.0,0,1.0,0,1.0
1953,'1',33.18,11.934,132.03,-79.218,1.037,1949,340.0,0.0,1.0,0.0,0.0,1.0,1,100.0,283.33,33.18,1,1.0,0,1.0,0,1.0,0,1.0,0,1.0
1954,'1',75.56,11.934,132.03,-79.218,1.037,1949,340.0,0.0,1.0,0.0,0.0,1.0,1,100.0,283.33,75.56,1,1.0,0,1.0,0,1.0,0,1.0,0,1.0
1955,'1',81.83,11.934,132.03,-79.218,1.037,1949,340.0,0.0,1.0,0.0,0.0,1.0,1,100.0,283.33,81.83,1,1.0,0,1.0,0,1.0,0,1.0,0,1.0
1956,'1',89.23,11.934,132.03,-79.218,1.037,1949,340.0,0.0,1.0,0.0,0.0,1.0,1,100.0,283.33,89.23,1,1.0,0,1.0,0,1.0,0,1.0,0,1.0
1957,'1',44.1,11.934,132.03,-79.218,1.037,1949,340.0,0.0,1.0,0.0,0.0,1.0,1,100.0,283.33,34.64,1,1.0,0,1.0,0,1.0,0,1.0,0,1.0
1960,'1',4.07,2.55,2.55,-1.53,1.04,0,6.0,0.0,1.0,0.0,0.0,1.0,1,100.0,5.0,2.02,1,1.0,0,1.0,0,1.0,0,1.0,0,1.0
1964,'1',22.235,0.404,6.997,-6.997,1.04,0,40.5,0.0,1.0,0.0,0.0,1.0,1,100.0,23.322,0.0,1,1.0,0,1.0,0,1.0,0,1.0,0,1.0
1964,'2',20.33,0.404,6.425,-6.425,1.04,0,40.5,0.0,1.0,0.0,0.0,1.0,1,100.0,21.417,0.0,1,1.0,0,1.0,0,1.0,0,1.0,0,1.0
1965,'1',27.471,0.485,10.125,-10.125,1.04,0,40.5,0.0,1.0,0.0,0.0,1.0,1,100.0,33.75,0.0,1,1.0,0,1.0,0,1.0,0,1.0,0,1.0
1965,'2',23.498,0.485,7.376,-7.376,1.04,0,40.5,0.0,1.0,0.0,0.0,1.0,1,100.0,24.585,0.0,1,1.0,0,1.0,0,1.0,0,1.0,0,1.0
1967,'1',4.233,2.65,2.65,-1.59,1.04,0,6.24,0.0,1.0,0.0,0.0,1.0,1,100.0,5.2,0.68,1,1.0,0,1.0,0,1.0,0,1.0,0,1.0
1967,'2',4.233,2.65,2.65,-1.59,1.04,0,6.24,0.0,1.0,0.0,0.0,1.0,1,100.0,5.2,1.39,1,1.0,0,1.0,0,1.0,0,1.0,0,1.0
1970,'1',2.605,1.63,1.63,-0.978,1.04,0,3.84,0.0,1.0,0.0,0.0,1.0,1,100.0,3.2,0.58,1,1.0,0,1.0,0,1.0,0,1.0,0,1.0
1972,'1',2.987,1.183,1.71,-1.026,1.04,0,4.4,0.0,1.0,0.0,0.0,1.0,1,100.0,3.67,1.46,1,1.0,0,1.0,0,1.0,0,1.0,0,1.0
1972,'2',2.987,1.183,1.71,-1.026,1.04,0,4.4,0.0,1.0,0.0,0.0,1.0,1,100.0,3.67,1.08,1,1.0,0,1.0,0,1.0,0,1.0,0,1.0
1973,'1',2.987,1.058,1.71,-1.026,1.04,0,4.4,0.0,1.0,0.0,0.0,1.0,1,100.0,3.67,1.15,1,1.0,0,1.0,0,1.0,0,1.0,0,1.0
1973,'2',2.987,1.058,1.71,-1.026,1.04,0,4.4,0.0,1.0,0.0,0.0,1.0,1,100.0,3.67,0.83,1,1.0,0,1.0,0,1.0,0,1.0,0,1.0
1974,'1',2.987,0.693,1.71,-1.026,1.04,0,4.4,0.0,1.0,0.0,0.0,1.0,1,100.0,3.67,0.9,1,1.0,0,1.0,0,1.0,0,1.0,0,1.0
1974,'2',2.987,0.693,1.71,-1.026,1.04,0,4.4,0.0,1.0,0.0,0.0,1.0,1,100.0,3.67,1.76,1,1.0,0,1.0,0,1.0,0,1.0,0,1.0
1977,'1',18.01,5.775,5.775,-5.775,1.04,0,46.2,0.0,1.0,0.0,0.0,1.0,1,100.0,19.25,0.0,1,1.0,0,1.0,0,1.0,0,1.0,0,1.0
1979,'1',20.349,11.65,11.65,-6.99,1.04,0,30.0,0.0,1.0,0.0,0.0,1.0,1,100.0,25.0,7.45,1,1.0,0,1.0,0,1.0,0,1.0,0,1.0
1981,'1',163.987,-12.381,102.55,-61.53,1.042,1980,241.76,0.0,1.0,0.0,0.0,1.0,1,100.0,201.47,97.56,1,1.0,0,1.0,0,1.0,0,1.0,0,1.0
1982,'1',129.757,-12.381,102.55,-61.53,1.042,1980,241.76,0.0,1.0,0.0,0.0,1.0,1,100.0,201.47,53.38,1,1.0,0,1.0,0,1.0,0,1.0,0,1.0
1983,'1',105.537,-5.498,102.55,-61.53,1.04,0,241.76,0.0,1.0,0.0,0.0,1.0,1,100.0,201.47,84.57,1,1.0,0,1.0,0,1.0,0,1.0,0,1.0
1985,'1',22.791,8.4,8.4,-8.4,1.04,0,33.6,0.0,1.0,0.0,0.0,1.0,1,100.0,28.0,0.0,1,1.0,0,1.0,0,1.0,0,1.0,0,1.0
1987,'1',15.605,4.713,4.713,-4.713,1.04,0,1.26,0.0,1.0,0.0,0.0,1.0,1,100.0,15.71,0.0,1,1.0,0,1.0,0,1.0,0,1.0,0,1.0
1987,'2',15.039,4.522,4.522,-4.522,1.04,0,1.26,0.0,1.0,0.0,0.0,1.0,1,100.0,15.073,0.0,1,1.0,0,1.0,0,1.0,0,1.0,0,1.0
1993,'1',18.243,1.822,5.723,-5.723,1.04,0,31.11,0.0,1.0,0.0,0.0,1.0,1,100.0,19.078,0.0,1,1.0,0,1.0,0,1.0,0,1.0,0,1.0
1993,'2',21.098,1.822,7.776,-7.776,1.04,0,31.11,0.0,1.0,0.0,0.0,1.0,1,100.0,25.92,0.0,1,1.0,0,1.0,0,1.0,0,1.0,0,1.0
1994,'1',21.098,4.26,7.776,-7.776,1.04,0,31.11,0.0,1.0,0.0,0.0,1.0,1,100.0,25.92,0.0,1,1.0,0,1.0,0,1.0,0,1.0,0,1.0
1994,'2',21.098,4.26,7.776,-7.776,1.04,0,31.11,0.0,1.0,0.0,0.0,1.0,1,100.0,25.92,0.0,1,1.0,0,1.0,0,1.0,0,1.0,0,1.0
1996,'1',23.914,-8.214,13.69,-8.214,1.04,1995,100.0,0.0,1.0,0.0,0.0,1.0,1,100.0,29.38,6.11,1,1.0,0,1.0,0,1.0,0,1.0,0,1.0
1997,'1',23.914,13.69,13.69,-8.214,1.04,0,35.26,0.0,1.0,0.0,0.0,1.0,1,100.0,29.38,3.15,1,1.0,0,1.0,0,1.0,0,1.0,0,1.0
1997,'2',23.914,13.69,13.69,-8.214,1.04,0,35.26,0.0,1.0,0.0,0.0,1.0,1,100.0,29.38,5.59,1,1.0,0,1.0,0,1.0,0,1.0,0,1.0
1997,'3',23.914,13.69,13.69,-8.214,1.04,0,35.26,0.0,1.0,0.0,0.0,1.0,1,100.0,29.38,13.28,1,1.0,0,1.0,0,1.0,0,1.0,0,1.0
1999,'1',23.914,-0.117,13.69,-8.214,1.04,0,35.26,0.0,1.0,0.0,0.0,1.0,1,100.0,29.38,5.04,1,1.0,0,1.0,0,1.0,0,1.0,0,1.0
1999,'2',23.914,-0.117,13.69,-8.214,1.04,0,35.26,0.0,1.0,0.0,0.0,1.0,1,100.0,29.38,4.0,1,1.0,0,1.0,0,1.0,0,1.0,0,1.0
2001,'1',1.628,0.93,0.93,-0.558,1.04,0,2.4,0.0,1.0,0.0,0.0,1.0,1,100.0,2.0,0.95,1,1.0,0,1.0,0,1.0,0,1.0,0,1.0
2001,'2',1.628,0.93,0.93,-0.558,1.04,0,2.4,0.0,1.0,0.0,0.0,1.0,1,100.0,2.0,0.36,1,1.0,0,1.0,0,1.0,0,1.0,0,1.0
2001,'3',1.628,0.93,0.93,-0.558,1.04,0,2.4,0.0,1.0,0.0,0.0,1.0,1,100.0,2.0,0.59,1,1.0,0,1.0,0,1.0,0,1.0,0,1.0
2001,'4',1.628,0.93,0.93,-0.558,1.04,0,2.4,0.0,1.0,0.0,0.0,1.0,1,100.0,2.0,0.48,1,1.0,0,1.0,0,1.0,0,1.0,0,1.0
2001,'5',1.628,0.93,0.93,-0.558,1.04,0,2.4,0.0,1.0,0.0,0.0,1.0,1,100.0,2.0,0.66,1,1.0,0,1.0,0,1.0,0,1.0,0,1.0
2003,'1',7.391,1.465,2.37,-2.37,1.04,0,18.96,0.0,1.0,0.0,0.0,1.0,1,100.0,7.9,0.0,1,1.0,0,1.0,0,1.0,0,1.0,0,1.0
2005,'1',34.928,-0.337,10.931,-10.931,1.04,0,56.16,0.0,1.0,0.0,0.0,1.0,1,100.0,36.435,0.0,1,1.0,0,1.0,0,1.0,0,1.0,0,1.0
2006,'1',25.977,-0.097,8.245,-8.245,1.04,0,56.16,0.0,1.0,0.0,0.0,1.0,1,100.0,27.484,0.0,1,1.0,0,1.0,0,1.0,0,1.0,0,1.0
2009,'1',32.477,11.728,11.728,-11.728,1.04,0,47.88,0.0,1.0,0.0,0.0,1.0,1,100.0,39.093,0.0,1,1.0,0,1.0,0,1.0,0,1.0,0,1.0
2010,'1',13.381,7.314,7.314,-7.314,1.04,0,47.88,0.0,1.0,0.0,0.0,1.0,1,100.0,24.381,0.0,1,1.0,0,1.0,0,1.0,0,1.0,0,1.0
2010,'2',32.477,10.41,10.41,-10.41,1.04,0,47.88,0.0,1.0,0.0,0.0,1.0,1,100.0,34.699,0.0,1,1.0,0,1.0,0,1.0,0,1.0,0,1.0
2010,'3',27.675,8.688,8.688,-8.688,1.04,0,47.88,0.0,1.0,0.0,0.0,1.0,1,100.0,28.96,0.0,1,1.0,0,1.0,0,1.0,0,1.0,0,1.0
2014,'1',113.857,14.279,115.35,-69.21,1.04,2011,297.04,0.0,1.0,0.0,0.0,1.0,1,100.0,247.53,103.69,1,1.0,0,1.0,0,1.0,0,1.0,0,1.0
2015,'1',146.511,0.282,115.35,-69.21,1.04,0,297.04,0.0,1.0,0.0,0.0,1.0,1,100.0,247.53,27.66,1,1.0,0,1.0,0,1.0,0,1.0,0,1.0
2016,'1',201.478,14.279,115.35,-69.21,1.04,2011,297.04,0.0,1.0,0.0,0.0,1.0,1,100.0,247.53,112.93,1,1.0,0,1.0,0,1.0,0,1.0,0,1.0
2017,'1',201.478,14.279,115.35,-69.21,1.04,2011,297.04,0.0,1.0,0.0,0.0,1.0,1,100.0,247.53,48.25,1,1.0,0,1.0,0,1.0,0,1.0,0,1.0
2018,'1',104.108,14.279,115.35,-69.21,1.04,2011,297.04,0.0,1.0,0.0,0.0,1.0,1,100.0,247.53,52.79,1,1.0,0,1.0,0,1.0,0,1.0,0,1.0
2019,'1',109.998,14.279,115.35,-69.21,1.04,2011,297.04,0.0,1.0,0.0,0.0,1.0,1,100.0,247.53,64.57,1,1.0,0,1.0,0,1.0,0,1.0,0,1.0
0 / END OF GENERATOR DATA BEGIN BRANCH DATA
1,95,'1',0.04327,0.10271,0.00256,71.7,71.7,71.7,0.0,0.0,0.0,0.0,1,1,10.87,1,1.0,0,1.0,0,1.0,0,1.0
2,1,'1',0.03074,0.08122,0.00134,69.3,69.3,69.3,0.0,0.0,0.0,0.0,1,1,7.35,1,1.0,0,1.0,0,1.0,0,1.0
3,53,'1',0.02438,0.05724,0.00059,44.8,44.8,44.8,0.0,0.0,0.0,0.0,1,1,4.52,1,1.0,0,1.0,0,1.0,0,1.0
3,67,'1',0.05612,0.17261,0.00395,47.7,47.7,47.7,0.0,0.0,0.0,0.0,1,1,14.89,1,1.0,0,1.0,0,1.0,0,1.0
4,5,'1',0.0003,0.00107,0.0,82.8,82.8,82.8,0.0,0.0,0.0,0.0,1,1,0.0,1,1.0,0,1.0,0,1.0,0,1.0
4,191,'1',0.01607,0.04144,0.01127,54.8,54.8,54.8,0.0,0.0,0.0,0.0,1,1,11.98,1,1.0,0,1.0,0,1.0,0,1.0
4,192,'1',0.05254,0.16625,0.00469,33.0,33.0,33.0,0.0,0.0,0.0,0.0,1,1,15.2,1,1.0,0,1.0,0,1.0,0,1.0
4,201,'1',0.13401,0.31389,0.00527,58.2,58.2,58.2,0.0,0.0,0.0,0.0,1,1,22.58,1,1.0,0,1.0,0,1.0,0,1.0
4,207,'1',0.10204,0.20536,0.00623,45.0,45.0,45.0,0.0,0.0,0.0,0.0,1,1,19.52,1,1.0,0,1.0,0,1.0,0,1.0
4,210,'1',0.05588,0.09338,0.00812,39.0,39.0,39.0,0.0,0.0,0.0,0.0,1,1,14.38,1,1.0,0,1.0,0,1.0,0,1.0
4,276,'1',0.10507,0.22654,0.00602,62.8,62.8,62.8,0.0,0.0,0.0,0.0,1,1,20.02,1,1.0,0,1.0,0,1.0,0,1.0
4,354,'1',0.03809,0.09277,0.00129,54.6,54.6,54.6,0.0,0.0,0.0,0.0,1,1,7.98,1,1.0,0,1.0,0,1.0,0,1.0
6,4,'1',0.02589,0.06365,0.00135,66.2,66.2,66.2,0.0,0.0,0.0,0.0,1,1,5.75,1,1.0,0,1.0,0,1.0,0,1.0
6,124,'1',0.03242,0.09724,0.00154,62.3,62.3,62.3,0.0,0.0,0.0,0.0,1,1,7.29,1,1.0,0,1.0,0,1.0,0,1.0
6,191,'1',0.04859,0.10302,0.0091,58.3,58.3,58.3,0.0,0.0,0.0,0.0,1,1,17.08,1,1.0,0,1.0,0,1.0,0,1.0
7,9,'1',0.00021,0.00114,0.0,414.0,414.0,414.0,0.0,0.0,0.0,0.0,1,1,0.0,1,1.0,0,1.0,0,1.0,0,1.0
8,195,'1',0.00986,0.02697,0.00199,53.1,53.1,53.1,0.0,0.0,0.0,0.0,1,1,4.01,1,1.0,0,1.0,0,1.0,0,1.0
8,196,'1',0.00814,0.01812,0.00374,130.2,130.2,130.2,0.0,0.0,0.0,0.0,1,1,4.54,1,1.0,0,1.0,0,1.0,0,1.0
8,330,'1',0.01447,0.03495,0.00027,57.1,57.1,57.1,0.0,0.0,0.0,0.0,1,1,2.54,1,1.0,0,1.0,0,1.0,0,1.0
9,13,'1',0.00229,0.01313,0.00106,246.1,246.1,246.1,0.0,0.0,0.0,0.0,1,1,2.84,1,1.0,0,1.0,0,1.0,0,1.0
10,173,'1',0.00409,0.02949,0.00252,183.2,183.2,183.2,0.0,0.0,0.0,0.0,1,1,6.39,1,1.0,0,1.0,0,1.0,0,1.0
11,194,'1',0.02793,0.07798,0.00316,53.8,53.8,53.8,0.0,0.0,0.0,0.0,1,1,9.97,1,1.0,0,1.0,0,1.0,0,1.0
11,426,'1',0.00977,0.02571,0.00188,62.4,62.4,62.4,0.0,0.0,0.0,0.0,1,1,4.88,1,1.0,0,1.0,0,1.0,0,1.0
11,439,'1',0.01065,0.02922,0.00073,56.3,56.3,56.3,0.0,0.0,0.0,0.0,1,1,3.81,1,1.0,0,1.0,0,1.0,0,1.0
12,14,'1',0.01389,0.03578,0.0005,60.0,60.0,60.0,0.0,0.0,0.0,0.0,1,1,3.24,1,1.0,0,1.0,0,1.0,0,1.0
12,412,'1',0.03383,0.07323,0.00175,75.0,75.0,75.0,0.0,0.0,0.0,0.0,1,1,7.4,1,1.0,0,1.0,0,1.0,0,1.0
12,412,'2',0.03383,0.07323,0.00175,75.0,75.0,75.0,0.0,0.0,0.0,0.0,1,1,7.4,1,1.0,0,1.0,0,1.0,0,1.0
13,257,'1',0.0087,0.03396,0.03219,214.3,214.3,214.3,0.0,0.0,0.0,0.0,1,1,18.2,1,1.0,0,1.0,0,1.0,0,1.0
13,265,'1',0.00659,0.03908,0.0269,218.8,218.8,218.8,0.0,0.0,0.0,0.0,1,1,17.08,1,1.0,0,1.0,0,1.0,0,1.0
13,329,'1',0.00264,0.01373,0.00772,236.8,236.8,236.8,0.0,0.0,0.0,0.0,1,1,6.99,1,1.0,0,1.0,0,1.0,0,1.0
15,8,'1',0.00891,0.01924,0.00072,74.2,74.2,74.2,0.0,0.0,0.0,0.0,1,1,2.6,1,1.0,0,1.0,0,1.0,0,1.0
15,264,'1',0.00813,0.01726,0.00511,70.3,70.3,70.3,0.0,0.0,0.0,0.0,1,1,6.28,1,1.0,0,1.0,0,1.0,0,1.0
15,323,'1',0.03021,0.07932,0.00127,69.1,69.1,69.1,0.0,0.0,0.0,0.0,1,1,6.6,1,1.0,0,1.0,0,1.0,0,1.0
16,18,'1',0.0149,0.0381,0.00092,65.3,65.3,65.3,0.0,0.0,0.0,0.0,1,1,3.37,1,1.0,0,1.0,0,1.0,0,1.0
17,16,'1',0.0185,0.03503,0.00068,58.2,58.2,58.2,0.0,0.0,0.0,0.0,1,1,2.6,1,1.0,0,1.0,0,1.0,0,1.0
17,63,'1',0.04841,0.09586,0.00166,58.4,58.4,58.4,0.0,0.0,0.0,0.0,1,1,7.98,1,1.0,0,1.0,0,1.0,0,1.0
17,180,'1',0.01114,0.02965,0.01273,80.0,80.0,80.0,0.0,0.0,0.0,0.0,1,1,14.02,1,1.0,0,1.0,0,1.0,0,1.0
19,21,'1',0.00025,0.00116,0.0,165.6,165.6,165.6,0.0,0.0,0.0,0.0,1,1,0.0,1,1.0,0,1.0,0,1.0,0,1.0
20,18,'1',0.01014,0.02702,0.0003,60.7,60.7,60.7,0.0,0.0,0.0,0.0,1,1,2.22,1,1.0,0,1.0,0,1.0,0,1.0
20,64,'1',0.01277,0.03556,0.00503,53.9,53.9,53.9,0.0,0.0,0.0,0.0,1,1,7.72,1,1.0,0,1.0,0,1.0,0,1.0
21,92,'1',0.01189,0.04169,0.01094,193.4,193.4,193.4,0.0,0.0,0.0,0.0,1,1,12.02,1,1.0,0,1.0,0,1.0,0,1.0
22,577,'1',0.046,0.07097,0.00477,56.3,56.3,56.3,0.0,0.0,0.0,0.0,1,1,13.31,1,1.0,0,1.0,0,1.0,0,1.0
24,23,'1',0.01954,0.05007,0.00171,44.9,44.9,44.9,0.0,0.0,0.0,0.0,1,1,6.04,1,1.0,0,1.0,0,1.0,0,1.0
25,26,'1',0.0,0.001,0.0,82.8,82.8,82.8,0.0,0.0,0.0,0.0,1,1,0.0,1,1.0,0,1.0,0,1.0,0,1.0
25,69,'1',0.03099,0.08461,0.00075,48.7,48.7,48.7,0.0,0.0,0.0,0.0,1,1,5.05,1,1.0,0,1.0,0,1.0,0,1.0
25,324,'1',0.05501,0.14863,0.0122,64.6,64.6,64.6,0.0,0.0,0.0,0.0,1,1,24.16,1,1.0,0,1.0,0,1.0,0,1.0
25,352,'1',0.00927,0.02691,0.00532,58.3,58.3,58.3,0.0,0.0,0.0,0.0,1,1,7.18,1,1.0,0,1.0,0,1.0,0,1.0
27,28,'1',0.00027,0.00112,0.0,82.8,82.8,82.8,0.0,0.0,0.0,0.0,1,1,0.0,1,1.0,0,1.0,0,1.0,0,1.0
27,303,'1',0.0175,0.04935,0.00133,52.5,52.5,52.5,0.0,0.0,0.0,0.0,1,1,4.9,1,1.0,0,1.0,0,1.0,0,1.0
29,27,'1',0.03729,0.08293,0.00079,55.4,55.4,55.4,0.0,0.0,0.0,0.0,1,1,6.2,1,1.0,0,1.0,0,1.0,0,1.0
29,144,'1',0.01518,0.04249,0.00288,65.3,65.3,65.3,0.0,0.0,0.0,0.0,1,1,7.41,1,1.0,0,1.0,0,1.0,0,1.0
30,121,'1',0.04104,0.11293,0.00424,62.3,62.3,62.3,0.0,0.0,0.0,0.0,1,1,12.97,1,1.0,0,1.0,0,1.0,0,1.0
30,374,'1',0.06457,0.16601,0.00349,59.1,59.1,59.1,0.0,0.0,0.0,0.0,1,1,12.99,1,1.0,0,1.0,0,1.0,0,1.0
32,226,'1',0.02188,0.05892,0.00142,65.4,65.4,65.4,0.0,0.0,0.0,0.0,1,1,5.75,1,1.0,0,1.0,0,1.0,0,1.0
32,287,'1',0.04149,0.07396,0.00185,71.6,71.6,71.6,0.0,0.0,0.0,0.0,1,1,7.14,1,1.0,0,1.0,0,1.0,0,1.0
33,32,'1',0.02363,0.05725,0.00363,100.0,100.0,100.0,0.0,0.0,0.0,0.0,1,1,9.07,1,1.0,0,1.0,0,1.0,0,1.0
33,45,'1',0.01601,0.04724,0.00496,61.8,61.8,61.8,0.0,0.0,0.0,0.0,1,1,8.34,1,1.0,0,1.0,0,1.0,0,1.0
34,36,'1',0.00027,0.001,0.0,200.0,200.0,200.0,0.0,0.0,0.0,0.0,1,1,0.0,1,1.0,0,1.0,0,1.0,0,1.0
35,149,'1',0.00928,0.02211,0.00043,66.4,66.4,66.4,0.0,0.0,0.0,0.0,1,1,2.4,1,1.0,0,1.0,0,1.0,0,1.0
35,151,'1',0.00318,0.01048,0.00051,82.7,82.7,82.7,0.0,0.0,0.0,0.0,1,1,1.39,1,1.0,0,1.0,0,1.0,0,1.0
35,151,'2',0.00318,0.01048,0.00051,82.7,82.7,82.7,0.0,0.0,0.0,0.0,1,1,1.39,1,1.0,0,1.0,0,1.0,0,1.0
36,37,'1',0.00631,0.03158,0.00755,243.3,243.3,243.3,0.0,0.0,0.0,0.0,1,1,9.57,1,1.0,0,1.0,0,1.0,0,1.0
36,114,'1',0.00504,0.03449,0.13787,350.0,350.0,350.0,0.0,0.0,0.0,0.0,1,1,36.05,1,1.0,0,1.0,0,1.0,0,1.0
36,114,'2',0.00504,0.03449,0.13787,350.0,350.0,350.0,0.0,0.0,0.0,0.0,1,1,36.05,1,1.0,0,1.0,0,1.0,0,1.0
36,411,'1',0.00629,0.03107,0.00742,264.1,264.1,264.1,0.0,0.0,0.0,0.0,1,1,10.08,1,1.0,0,1.0,0,1.0,0,1.0
37,136,'1',0.00514,0.02521,0.03353,226.0,226.0,226.0,0.0,0.0,0.0,0.0,1,1,15.66,1,1.0,0,1.0,0,1.0,0,1.0
38,145,'1',0.00866,0.01765,0.00018,62.1,62.1,62.1,0.0,0.0,0.0,0.0,1,1,1.36,1,1.0,0,1.0,0,1.0,0,1.0
38,281,'1',0.01075,0.03111,0.00205,55.7,55.7,55.7,0.0,0.0,0.0,0.0,1,1,4.96,1,1.0,0,1.0,0,1.0,0,1.0
39,35,'1',0.01386,0.03798,0.00105,68.3,68.3,68.3,0.0,0.0,0.0,0.0,1,1,3.88,1,1.0,0,1.0,0,1.0,0,1.0
39,40,'1',0.0,0.001,0.0,82.8,82.8,82.8,0.0,0.0,0.0,0.0,1,1,0.0,1,1.0,0,1.0,0,1.0,0,1.0
39,41,'1',0.01749,0.05347,0.00123,68.1,68.1,68.1,0.0,0.0,0.0,0.0,1,1,5.08,1,1.0,0,1.0,0,1.0,0,1.0
40,146,'1',0.01479,0.02784,0.00026,59.1,59.1,59.1,0.0,0.0,0.0,0.0,1,1,0.0,1,1.0,0,1.0,0,1.0,0,1.0
41,412,'1',0.01536,0.04278,0.0005,72.7,72.7,72.7,0.0,0.0,0.0,0.0,1,1,3.13,1,1.0,0,1.0,0,1.0,0,1.0
42,43,'1',0.00023,0.00116,0.0,82.8,82.8,82.8,0.0,0.0,0.0,0.0,1,1,0.0,1,1.0,0,1.0,0,1.0,0,1.0
42,147,'1',0.01021,0.02569,0.00031,85.0,85.0,85.0,0.0,0.0,0.0,0.0,1,1,1.89,1,1.0,0,1.0,0,1.0,0,1.0
42,172,'1',0.01034,0.02954,0.00188,55.8,55.8,55.8,0.0,0.0,0.0,0.0,1,1,4.8,1,1.0,0,1.0,0,1.0,0,1.0
44,45,'1',0.00028,0.00119,0.0,82.8,82.8,82.8,0.0,0.0,0.0,0.0,1,1,0.0,1,1.0,0,1.0,0,1.0,0,1.0
46,31,'1',0.05038,0.10012,0.00098,53.7,53.7,53.7,0.0,0.0,0.0,0.0,1,1,5.73,1,1.0,0,1.0,0,1.0,0,1.0
47,50,'1',0.0344,0.09608,0.00122,53.3,53.3,53.3,0.0,0.0,0.0,0.0,1,1,6.98,1,1.0,0,1.0,0,1.0,0,1.0
48,49,'1',0.00024,0.00112,0.0,82.8,82.8,82.8,0.0,0.0,0.0,0.0,1,1,0.0,1,1.0,0,1.0,0,1.0,0,1.0
49,50,'1',0.02865,0.06052,0.00083,50.0,50.0,50.0,0.0,0.0,0.0,0.0,1,1,4.61,1,1.0,0,1.0,0,1.0,0,1.0
49,1700,'1',0.04331,0.11095,0.00129,55.9,55.9,55.9,0.0,0.0,0.0,0.0,1,1,7.51,1,1.0,0,1.0,0,1.0,0,1.0
50,51,'1',0.00027,0.00119,0.0,82.8,82.8,82.8,0.0,0.0,0.0,0.0,1,1,0.0,1,1.0,0,1.0,0,1.0,0,1.0
50,1705,'1',0.01821,0.04815,0.00344,57.0,57.0,57.0,0.0,0.0,0.0,0.0,1,1,7.42,1,1.0,0,1.0,0,1.0,0,1.0
52,297,'1',0.03139,0.07961,0.00091,55.5,55.5,55.5,0.0,0.0,0.0,0.0,1,1,6.11,1,1.0,0,1.0,0,1.0,0,1.0
52,1907,'1',0.07425,0.14976,0.0053,58.1,58.1,58.1,0.0,0.0,0.0,0.0,1,1,14.77,1,1.0,0,1.0,0,1.0,0,1.0
53,52,'1',0.0326,0.07476,0.00221,47.7,47.7,47.7,0.0,0.0,0.0,0.0,1,1,7.63,1,1.0,0,1.0,0,1.0,0,1.0
53,54,'1',0.00027,0.00112,0.0,82.8,82.8,82.8,0.0,0.0,0.0,0.0,1,1,0.0,1,1.0,0,1.0,0,1.0,0,1.0
55,57,'1',0.0003,0.0011,0.0,414.0,414.0,414.0,0.0,0.0,0.0,0.0,1,1,0.0,1,1.0,0,1.0,0,1.0,0,1.0
55,1614,'1',0.00798,0.04074,0.02479,183.5,183.5,183.5,0.0,0.0,0.0,0.0,1,1,17.41,1,1.0,0,1.0,0,1.0,0,1.0
58,56,'1',0.02677,0.04946,0.00059,59.6,59.6,59.6,0.0,0.0,0.0,0.0,1,1,3.35,1,1.0,0,1.0,0,1.0,0,1.0
59,56,'1',0.01262,0.03339,0.00061,65.5,65.5,65.5,0.0,0.0,0.0,0.0,1,1,3.05,1,1.0,0,1.0,0,1.0,0,1.0
60,62,'1',0.03515,0.10136,0.00063,54.1,54.1,54.1,0.0,0.0,0.0,0.0,1,1,5.27,1,1.0,0,1.0,0,1.0,0,1.0
62,1603,'1',0.03241,0.07489,0.0092,49.6,49.6,49.6,0.0,0.0,0.0,0.0,1,1,13.98,1,1.0,0,1.0,0,1.0,0,1.0
63,67,'1',0.02682,0.06666,0.00147,62.2,62.2,62.2,0.0,0.0,0.0,0.0,1,1,5.95,1,1.0,0,1.0,0,1.0,0,1.0
64,91,'1',0.0235,0.05751,0.00114,55.9,55.9,55.9,0.0,0.0,0.0,0.0,1,1,5.19,1,1.0,0,1.0,0,1.0,0,1.0
65,66,'1',0.03205,0.08264,0.00173,60.6,60.6,60.6,0.0,0.0,0.0,0.0,1,1,6.92,1,1.0,0,1.0,0,1.0,0,1.0
65,109,'1',0.0582,0.10902,0.00112,57.9,57.9,57.9,0.0,0.0,0.0,0.0,1,1,6.98,1,1.0,0,1.0,0,1.0,0,1.0
67,71,'1',0.03739,0.09462,0.00638,78.4,78.4,78.4,0.0,0.0,0.0,0.0,1,1,13.19,1,1.0,0,1.0,0,1.0,0,1.0
68,69,'1',0.03605,0.07795,0.00168,55.9,55.9,55.9,0.0,0.0,0.0,0.0,1,1,7.15,1,1.0,0,1.0,0,1.0,0,1.0
68,269,'1',0.01673,0.04281,0.00189,52.3,52.3,52.3,0.0,0.0,0.0,0.0,1,1,5.86,1,1.0,0,1.0,0,1.0,0,1.0
69,22,'1',0.02552,0.06993,0.00167,52.1,52.1,52.1,0.0,0.0,0.0,0.0,1,1,7.44,1,1.0,0,1.0,0,1.0,0,1.0
70,72,'1',0.00024,0.00118,0.0,165.6,165.6,165.6,0.0,0.0,0.0,0.0,1,1,0.0,1,1.0,0,1.0,0,1.0,0,1.0
70,1908,'1',0.00723,0.03362,0.01815,187.2,187.2,187.2,0.0,0.0,0.0,0.0,1,1,13.36,1,1.0,0,1.0,0,1.0,0,1.0
71,107,'1',0.05494,0.10268,0.0026,57.7,57.7,57.7,0.0,0.0,0.0,0.0,1,1,9.75,1,1.0,0,1.0,0,1.0,0,1.0
73,75,'1',0.00028,0.00107,0.0,165.6,165.6,165.6,0.0,0.0,0.0,0.0,1,1,0.0,1,1.0,0,1.0,0,1.0,0,1.0
75,84,'1',0.00521,0.02882,0.00405,208.8,208.8,208.8,0.0,0.0,0.0,0.0,1,1,7.44,1,1.0,0,1.0,0,1.0,0,1.0
76,2020,'1',0.0024,0.02943,0.38186,1035.0,1035.0,1035.0,0.0,0.0,0.0,0.0,1,1,59.77,1,1.0,0,1.0,0,1.0,0,1.0
77,84,'1',0.00479,0.03165,0.0031,210.6,210.6,210.6,0.0,0.0,0.0,0.0,1,1,5.69,1,1.0,0,1.0,0,1.0,0,1.0
77,85,'1',0.00594,0.03048,0.00769,254.8,254.8,254.8,0.0,0.0,0.0,0.0,1,1,8.92,1,1.0,0,1.0,0,1.0,0,1.0
78,94,'1',0.00615,0.01244,0.00026,69.3,69.3,69.3,0.0,0.0,0.0,0.0,1,1,0.0,1,1.0,0,1.0,0,1.0,0,1.0
78,95,'1',0.03284,0.07257,0.00169,71.9,71.9,71.9,0.0,0.0,0.0,0.0,1,1,6.89,1,1.0,0,1.0,0,1.0,0,1.0
78,97,'1',0.02774,0.05582,0.00315,62.5,62.5,62.5,0.0,0.0,0.0,0.0,1,1,8.01,1,1.0,0,1.0,0,1.0,0,1.0
79,78,'1',0.02001,0.05675,0.00131,53.9,53.9,53.9,0.0,0.0,0.0,0.0,1,1,5.41,1,1.0,0,1.0,0,1.0,0,1.0
79,86,'1',0.01566,0.03864,0.00125,67.1,67.1,67.1,0.0,0.0,0.0,0.0,1,1,4.67,1,1.0,0,1.0,0,1.0,0,1.0
80,376,'1',0.03789,0.09223,0.00152,66.3,66.3,66.3,0.0,0.0,0.0,0.0,1,1,8.1,1,1.0,0,1.0,0,1.0,0,1.0
81,80,'1',0.02967,0.07681,0.00046,64.2,64.2,64.2,0.0,0.0,0.0,0.0,1,1,4.42,1,1.0,0,1.0,0,1.0,0,1.0
81,93,'1',0.01988,0.04902,0.00211,58.3,58.3,58.3,0.0,0.0,0.0,0.0,1,1,7.02,1,1.0,0,1.0,0,1.0,0,1.0
82,84,'1',0.00029,0.00102,0.0,414.0,414.0,414.0,0.0,0.0,0.0,0.0,1,1,0.0,1,1.0,0,1.0,0,1.0,0,1.0
83,81,'1',0.00381,0.01076,0.0003,57.4,57.4,57.4,0.0,0.0,0.0,0.0,1,1,1.07,1,1.0,0,1.0,0,1.0,0,1.0
84,96,'1',0.00631,0.03691,0.01119,194.9,194.9,194.9,0.0,0.0,0.0,0.0,1,1,12.93,1,1.0,0,1.0,0,1.0,0,1.0
85,87,'1',0.00024,0.00113,0.0,165.6,165.6,165.6,0.0,0.0,0.0,0.0,1,1,0.0,1,1.0,0,1.0,0,1.0,0,1.0
85,114,'1',0.00742,0.04285,0.08388,261.2,261.2,261.2,0.0,0.0,0.0,0.0,1,1,33.39,1,1.0,0,1.0,0,1.0,0,1.0
85,1759,'1',0.00469,0.02961,0.03061,325.0,325.0,325.0,0.0,0.0,0.0,0.0,1,1,16.4,1,1.0,0,1.0,0,1.0,0,1.0
86,80,'1',0.01903,0.045,0.00115,62.2,62.2,62.2,0.0,0.0,0.0,0.0,1,1,5.09,1,1.0,0,1.0,0,1.0,0,1.0
88,1759,'1',0.01016,0.06325,0.01348,187.2,187.2,187.2,0.0,0.0,0.0,0.0,1,1,16.14,1,1.0,0,1.0,0,1.0,0,1.0
89,376,'1',0.0307,0.08586,0.00065,57.5,57.5,57.5,0.0,0.0,0.0,0.0,1,1,5.36,1,1.0,0,1.0,0,1.0,0,1.0
90,92,'1',0.00023,0.00103,0.0,414.0,414.0,414.0,0.0,0.0,0.0,0.0,1,1,0.0,1,1.0,0,1.0,0,1.0,0,1.0
92,77,'1',0.00549,0.03185,0.00652,216.6,216.6,216.6,0.0,0.0,0.0,0.0,1,1,8.99,1,1.0,0,1.0,0,1.0,0,1.0
93,78,'1',0.00615,0.01244,0.00026,69.3,69.3,69.3,0.0,0.0,0.0,0.0,1,1,1.02,1,1.0,0,1.0,0,1.0,0,1.0
93,94,'1',0.0,0.001,0.0,82.8,82.8,82.8,0.0,0.0,0.0,0.0,1,1,0.0,1,1.0,0,1.0,0,1.0,0,1.0
94,81,'1',0.01988,0.04902,0.00211,58.3,58.3,58.3,0.0,0.0,0.0,0.0,1,1,0.0,1,1.0,0,1.0,0,1.0,0,1.0
95,74,'1',0.01816,0.04437,0.00069,58.9,58.9,58.9,0.0,0.0,0.0,0.0,1,1,3.65,1,1.0,0,1.0,0,1.0,0,1.0
96,77,'1',0.00225,0.01514,0.0116,210.8,210.8,210.8,0.0,0.0,0.0,0.0,1,1,9.14,1,1.0,0,1.0,0,1.0,0,1.0
97,71,'1',0.03271,0.08645,0.00135,63.9,63.9,63.9,0.0,0.0,0.0,0.0,1,1,7.04,1,1.0,0,1.0,0,1.0,0,1.0
98,99,'1',0.00897,0.01897,0.00274,60.1,60.1,60.1,0.0,0.0,0.0,0.0,1,1,5.06,1,1.0,0,1.0,0,1.0,0,1.0
...